/*---------------------------------------------------------------------------*\
| =========                 |                                                 |
| \\      /  F ield         | OpenFOAM: The Open Source CFD Toolbox           |
|  \\    /   O peration     | Version:  v1912                                 |
|   \\  /    A nd           | Website:  www.openfoam.com                      |
|    \\/     M anipulation  |                                                 |
\*---------------------------------------------------------------------------*/
Build  : _f3950763fe-20191219 OPENFOAM=1912
Arch   : "LSB;label=32;scalar=64"
Exec   : pimpleFoamOscillating
Date   : Jun 22 2020
Time   : 13:02:39
Host   : compute-0-238.local
PID    : 101247
I/O    : uncollated
Case   : /misc/research/musman2/OF_Latest/DecompForces/T15/OscillatingDisk/Porosity0/P0Re_100
nProcs : 1
trapFpe: Floating point exception trapping enabled (FOAM_SIGFPE).
fileModificationChecking : Monitoring run-time modified files using timeStampMaster (fileModificationSkew 10)
allowSystemOperations : Allowing user-supplied system call operations

// * * * * * * * * * * * * * * * * * * * * * * * * * * * * * * * * * * * * * //
Create time

Create mesh for time = 0


PIMPLE: max iterations = 2
    field U	: relTol 0, tolerance 0.0001
    field p	: relTol 0, tolerance 0.0001

Reading field p

Reading field U

Reading/calculating face flux field phi

Selecting incompressible transport model Newtonian
Selecting turbulence model type laminar
Selecting laminar stress model Stokes
No MRF models present

No finite volume options present

Starting time loop

forces forces:
    rho: rhoInf
    Freestream density (rhoInf) set to 1
    Not including porosity effects

Courant Number mean: 0 max: 0
deltaT = 0.0011976
Time = 0.0011976

PIMPLE: iteration 1
smoothSolver:  Solving for Ux, Initial residual = 0.999999, Final residual = 2.20879e-07, No Iterations 1
smoothSolver:  Solving for Uy, Initial residual = 0.999999, Final residual = 2.18727e-07, No Iterations 1
smoothSolver:  Solving for Uz, Initial residual = 1, Final residual = 1.10204e-06, No Iterations 2
GAMG:  Solving for p, Initial residual = 1, Final residual = 0.00857596, No Iterations 8
GAMG:  Solving for p, Initial residual = 0.00203523, Final residual = 1.9177e-05, No Iterations 3
GAMG:  Solving for p, Initial residual = 5.26452e-05, Final residual = 5.43768e-06, No Iterations 2
time step continuity errors : sum local = 4.84328e-10, global = 2.45559e-10, cumulative = 2.45559e-10
GAMG:  Solving for p, Initial residual = 0.0223329, Final residual = 0.000191643, No Iterations 8
GAMG:  Solving for p, Initial residual = 0.00141591, Final residual = 1.33744e-05, No Iterations 3
GAMG:  Solving for p, Initial residual = 3.67388e-05, Final residual = 7.17078e-06, No Iterations 1
time step continuity errors : sum local = 6.38497e-10, global = 3.13451e-10, cumulative = 5.5901e-10
GAMG:  Solving for p, Initial residual = 0.0223575, Final residual = 0.000191885, No Iterations 8
GAMG:  Solving for p, Initial residual = 0.001417, Final residual = 1.33861e-05, No Iterations 3
GAMG:  Solving for p, Initial residual = 3.67636e-05, Final residual = 7.17724e-06, No Iterations 1
time step continuity errors : sum local = 6.38996e-10, global = 3.13687e-10, cumulative = 8.72696e-10
GAMG:  Solving for p, Initial residual = 0.0223599, Final residual = 0.000191908, No Iterations 8
GAMG:  Solving for p, Initial residual = 0.00141705, Final residual = 1.33868e-05, No Iterations 3
GAMG:  Solving for p, Initial residual = 3.67642e-05, Final residual = 7.17755e-06, No Iterations 1
time step continuity errors : sum local = 6.38994e-10, global = 3.13686e-10, cumulative = 1.18638e-09
GAMG:  Solving for p, Initial residual = 0.0223608, Final residual = 0.000191916, No Iterations 8
GAMG:  Solving for p, Initial residual = 0.00141706, Final residual = 1.3387e-05, No Iterations 3
GAMG:  Solving for p, Initial residual = 3.67641e-05, Final residual = 7.17766e-06, No Iterations 1
time step continuity errors : sum local = 6.38991e-10, global = 3.13686e-10, cumulative = 1.50007e-09
PIMPLE: iteration 2
smoothSolver:  Solving for Ux, Initial residual = 0.183452, Final residual = 9.26219e-06, No Iterations 51
smoothSolver:  Solving for Uy, Initial residual = 0.183493, Final residual = 9.35263e-06, No Iterations 51
smoothSolver:  Solving for Uz, Initial residual = 0.261798, Final residual = 3.45734e-06, No Iterations 2
GAMG:  Solving for p, Initial residual = 0.00966786, Final residual = 8.18865e-05, No Iterations 8
GAMG:  Solving for p, Initial residual = 0.0408308, Final residual = 0.000381375, No Iterations 3
GAMG:  Solving for p, Initial residual = 0.00127777, Final residual = 1.18318e-05, No Iterations 6
time step continuity errors : sum local = 1.812e-11, global = -9.62349e-12, cumulative = 1.49045e-09
GAMG:  Solving for p, Initial residual = 0.00331888, Final residual = 2.06742e-05, No Iterations 8
GAMG:  Solving for p, Initial residual = 0.000926997, Final residual = 5.22421e-06, No Iterations 4
GAMG:  Solving for p, Initial residual = 4.03188e-05, Final residual = 4.84169e-06, No Iterations 1
time step continuity errors : sum local = 7.23964e-12, global = 3.65548e-12, cumulative = 1.4941e-09
GAMG:  Solving for p, Initial residual = 0.000402977, Final residual = 6.0888e-06, No Iterations 6
GAMG:  Solving for p, Initial residual = 0.000129559, Final residual = 7.63419e-06, No Iterations 1
GAMG:  Solving for p, Initial residual = 1.09189e-05, Final residual = 3.97177e-06, No Iterations 1
time step continuity errors : sum local = 5.94024e-12, global = 1.80179e-12, cumulative = 1.4959e-09
GAMG:  Solving for p, Initial residual = 0.000140574, Final residual = 9.56457e-06, No Iterations 4
GAMG:  Solving for p, Initial residual = 5.52727e-05, Final residual = 6.64006e-06, No Iterations 1
GAMG:  Solving for p, Initial residual = 8.08941e-06, Final residual = 8.08941e-06, No Iterations 0
time step continuity errors : sum local = 1.20984e-11, global = 1.50141e-12, cumulative = 1.4974e-09
GAMG:  Solving for p, Initial residual = 6.59156e-05, Final residual = 5.36682e-06, No Iterations 4
GAMG:  Solving for p, Initial residual = 2.92378e-05, Final residual = 3.71903e-06, No Iterations 1
GAMG:  Solving for p, Initial residual = 4.47419e-06, Final residual = 4.47419e-06, No Iterations 0
time step continuity errors : sum local = 6.69128e-12, global = 8.68855e-13, cumulative = 1.49827e-09
PIMPLE: not converged within 2 iterations
 just to make sure 0.0011976
ExecutionTime = 95.93 s  ClockTime = 97 s

forces forces write:
    Sum of forces
        Total    : (-2.24595e-05 0.000461114 -737.109)
        Pressure : (-0.000693502 -0.000159031 -725.544)
        Viscous  : (0.000671042 0.000620145 -11.565)
    Sum of moments
        Total    : (-0.00161224 0.00513594 -1.3567e-05)
        Pressure : (-0.000455007 0.00415195 -6.98874e-07)
        Viscous  : (-0.00115723 0.000983993 -1.28682e-05)


Courant Number mean: 0.000148731 max: 0.0821248
deltaT = 0.0014406
Time = 0.0026382

PIMPLE: iteration 1
smoothSolver:  Solving for Ux, Initial residual = 0.235117, Final residual = 3.98662e-06, No Iterations 6
smoothSolver:  Solving for Uy, Initial residual = 0.23168, Final residual = 3.92959e-06, No Iterations 6
smoothSolver:  Solving for Uz, Initial residual = 0.464443, Final residual = 5.01737e-06, No Iterations 1
GAMG:  Solving for p, Initial residual = 0.557917, Final residual = 0.00478751, No Iterations 8
GAMG:  Solving for p, Initial residual = 0.00202353, Final residual = 1.91225e-05, No Iterations 3
GAMG:  Solving for p, Initial residual = 5.23676e-05, Final residual = 5.4294e-06, No Iterations 2
time step continuity errors : sum local = 6.85771e-10, global = 3.46294e-10, cumulative = 1.84457e-09
GAMG:  Solving for p, Initial residual = 0.0218566, Final residual = 0.000187694, No Iterations 8
GAMG:  Solving for p, Initial residual = 0.00140799, Final residual = 1.33351e-05, No Iterations 3
GAMG:  Solving for p, Initial residual = 3.65623e-05, Final residual = 7.15174e-06, No Iterations 1
time step continuity errors : sum local = 9.03348e-10, global = 4.41761e-10, cumulative = 2.28633e-09
GAMG:  Solving for p, Initial residual = 0.0218695, Final residual = 0.000187863, No Iterations 8
GAMG:  Solving for p, Initial residual = 0.00140884, Final residual = 1.33449e-05, No Iterations 3
GAMG:  Solving for p, Initial residual = 3.65815e-05, Final residual = 7.15717e-06, No Iterations 1
time step continuity errors : sum local = 9.04016e-10, global = 4.42077e-10, cumulative = 2.72841e-09
GAMG:  Solving for p, Initial residual = 0.0218694, Final residual = 0.000187866, No Iterations 8
GAMG:  Solving for p, Initial residual = 0.00140885, Final residual = 1.3345e-05, No Iterations 3
GAMG:  Solving for p, Initial residual = 3.6581e-05, Final residual = 7.15721e-06, No Iterations 1
time step continuity errors : sum local = 9.04014e-10, global = 4.42077e-10, cumulative = 3.17048e-09
GAMG:  Solving for p, Initial residual = 0.0218693, Final residual = 0.000187868, No Iterations 8
GAMG:  Solving for p, Initial residual = 0.00140884, Final residual = 1.33451e-05, No Iterations 3
GAMG:  Solving for p, Initial residual = 3.65806e-05, Final residual = 7.15721e-06, No Iterations 1
time step continuity errors : sum local = 9.04012e-10, global = 4.42077e-10, cumulative = 3.61256e-09
PIMPLE: iteration 2
smoothSolver:  Solving for Ux, Initial residual = 0.16946, Final residual = 9.31077e-06, No Iterations 47
smoothSolver:  Solving for Uy, Initial residual = 0.169114, Final residual = 9.38773e-06, No Iterations 47
smoothSolver:  Solving for Uz, Initial residual = 0.162346, Final residual = 6.5315e-06, No Iterations 1
GAMG:  Solving for p, Initial residual = 0.00969962, Final residual = 8.2519e-05, No Iterations 8
GAMG:  Solving for p, Initial residual = 0.0513511, Final residual = 0.000482304, No Iterations 3
GAMG:  Solving for p, Initial residual = 0.00170833, Final residual = 1.59367e-05, No Iterations 6
time step continuity errors : sum local = 2.64731e-11, global = -1.40043e-11, cumulative = 3.59855e-09
GAMG:  Solving for p, Initial residual = 0.00382973, Final residual = 2.78477e-05, No Iterations 7
GAMG:  Solving for p, Initial residual = 0.000766688, Final residual = 9.7556e-06, No Iterations 3
GAMG:  Solving for p, Initial residual = 3.82696e-05, Final residual = 7.47301e-06, No Iterations 1
time step continuity errors : sum local = 1.34439e-11, global = 8.3493e-12, cumulative = 3.6069e-09
GAMG:  Solving for p, Initial residual = 0.000416751, Final residual = 9.34646e-06, No Iterations 5
GAMG:  Solving for p, Initial residual = 9.33592e-05, Final residual = 8.52697e-06, No Iterations 1
GAMG:  Solving for p, Initial residual = 1.07647e-05, Final residual = 4.68147e-06, No Iterations 1
time step continuity errors : sum local = 8.43258e-12, global = 2.80008e-12, cumulative = 3.6097e-09
GAMG:  Solving for p, Initial residual = 0.00013187, Final residual = 6.25173e-06, No Iterations 4
GAMG:  Solving for p, Initial residual = 3.10543e-05, Final residual = 4.6032e-06, No Iterations 1
GAMG:  Solving for p, Initial residual = 5.34741e-06, Final residual = 5.34741e-06, No Iterations 0
time step continuity errors : sum local = 9.63608e-12, global = 1.56149e-12, cumulative = 3.61127e-09
GAMG:  Solving for p, Initial residual = 5.46753e-05, Final residual = 6.56925e-06, No Iterations 3
GAMG:  Solving for p, Initial residual = 1.6504e-05, Final residual = 4.12528e-06, No Iterations 1
GAMG:  Solving for p, Initial residual = 4.79001e-06, Final residual = 4.79001e-06, No Iterations 0
time step continuity errors : sum local = 8.63306e-12, global = 9.89218e-13, cumulative = 3.61225e-09
PIMPLE: not converged within 2 iterations
 just to make sure 0.0026382
ExecutionTime = 186.76 s  ClockTime = 188 s

forces forces write:
    Sum of forces
        Total    : (0.000326706 0.00092543 -737.685)
        Pressure : (-0.00114324 -0.00034962 -720.889)
        Viscous  : (0.00146995 0.00127505 -16.796)
    Sum of moments
        Total    : (-0.00242168 0.00466671 -2.04877e-05)
        Pressure : (-0.000757874 0.00439519 -1.22115e-06)
        Viscous  : (-0.00166381 0.000271518 -1.92666e-05)


Courant Number mean: 0.000390495 max: 0.223285
deltaT = 0.00173124
Time = 0.00436945

PIMPLE: iteration 1
smoothSolver:  Solving for Ux, Initial residual = 0.137113, Final residual = 5.45175e-06, No Iterations 5
smoothSolver:  Solving for Uy, Initial residual = 0.135711, Final residual = 5.39598e-06, No Iterations 5
smoothSolver:  Solving for Uz, Initial residual = 0.312117, Final residual = 4.31182e-06, No Iterations 1
GAMG:  Solving for p, Initial residual = 0.485185, Final residual = 0.00414347, No Iterations 8
GAMG:  Solving for p, Initial residual = 0.00201533, Final residual = 1.90183e-05, No Iterations 3
GAMG:  Solving for p, Initial residual = 5.20843e-05, Final residual = 5.39352e-06, No Iterations 2
time step continuity errors : sum local = 9.45454e-10, global = 4.78848e-10, cumulative = 4.0911e-09
GAMG:  Solving for p, Initial residual = 0.0217289, Final residual = 0.00018569, No Iterations 8
GAMG:  Solving for p, Initial residual = 0.00140167, Final residual = 1.32606e-05, No Iterations 3
GAMG:  Solving for p, Initial residual = 3.63484e-05, Final residual = 7.10904e-06, No Iterations 1
time step continuity errors : sum local = 1.24608e-09, global = 6.1116e-10, cumulative = 4.70226e-09
GAMG:  Solving for p, Initial residual = 0.0217421, Final residual = 0.000185883, No Iterations 8
GAMG:  Solving for p, Initial residual = 0.00140261, Final residual = 1.32712e-05, No Iterations 3
GAMG:  Solving for p, Initial residual = 3.63695e-05, Final residual = 7.11487e-06, No Iterations 1
time step continuity errors : sum local = 1.24707e-09, global = 6.11629e-10, cumulative = 5.31389e-09
GAMG:  Solving for p, Initial residual = 0.0217419, Final residual = 0.000185887, No Iterations 8
GAMG:  Solving for p, Initial residual = 0.0014026, Final residual = 1.32713e-05, No Iterations 3
GAMG:  Solving for p, Initial residual = 3.63686e-05, Final residual = 7.11491e-06, No Iterations 1
time step continuity errors : sum local = 1.24707e-09, global = 6.11629e-10, cumulative = 5.92552e-09
GAMG:  Solving for p, Initial residual = 0.0217417, Final residual = 0.000185888, No Iterations 8
GAMG:  Solving for p, Initial residual = 0.00140259, Final residual = 1.32714e-05, No Iterations 3
GAMG:  Solving for p, Initial residual = 3.6368e-05, Final residual = 7.11491e-06, No Iterations 1
time step continuity errors : sum local = 1.24707e-09, global = 6.11628e-10, cumulative = 6.53715e-09
PIMPLE: iteration 2
smoothSolver:  Solving for Ux, Initial residual = 0.160027, Final residual = 9.15131e-06, No Iterations 47
smoothSolver:  Solving for Uy, Initial residual = 0.159603, Final residual = 9.20997e-06, No Iterations 47
smoothSolver:  Solving for Uz, Initial residual = 0.119316, Final residual = 6.38432e-06, No Iterations 1
GAMG:  Solving for p, Initial residual = 0.00960596, Final residual = 8.11799e-05, No Iterations 8
GAMG:  Solving for p, Initial residual = 0.0374625, Final residual = 0.000351337, No Iterations 3
GAMG:  Solving for p, Initial residual = 0.0011561, Final residual = 1.07606e-05, No Iterations 6
time step continuity errors : sum local = 3.62483e-11, global = -1.92348e-11, cumulative = 6.51791e-09
GAMG:  Solving for p, Initial residual = 0.00294765, Final residual = 1.89652e-05, No Iterations 7
GAMG:  Solving for p, Initial residual = 0.000581296, Final residual = 6.98911e-06, No Iterations 3
GAMG:  Solving for p, Initial residual = 2.767e-05, Final residual = 5.19235e-06, No Iterations 1
time step continuity errors : sum local = 1.85578e-11, global = 1.15679e-11, cumulative = 6.52948e-09
GAMG:  Solving for p, Initial residual = 0.000330041, Final residual = 6.69337e-06, No Iterations 5
GAMG:  Solving for p, Initial residual = 6.73179e-05, Final residual = 6.15376e-06, No Iterations 1
GAMG:  Solving for p, Initial residual = 7.69081e-06, Final residual = 7.69081e-06, No Iterations 0
time step continuity errors : sum local = 2.75077e-11, global = 6.69099e-12, cumulative = 6.53617e-09
GAMG:  Solving for p, Initial residual = 0.000108398, Final residual = 9.15039e-06, No Iterations 3
GAMG:  Solving for p, Initial residual = 2.56323e-05, Final residual = 5.44067e-06, No Iterations 1
GAMG:  Solving for p, Initial residual = 6.41044e-06, Final residual = 6.41044e-06, No Iterations 0
time step continuity errors : sum local = 2.29321e-11, global = 3.96928e-12, cumulative = 6.54014e-09
GAMG:  Solving for p, Initial residual = 4.68864e-05, Final residual = 8.97028e-06, No Iterations 2
GAMG:  Solving for p, Initial residual = 1.39527e-05, Final residual = 5.10946e-06, No Iterations 1
GAMG:  Solving for p, Initial residual = 5.97534e-06, Final residual = 5.97534e-06, No Iterations 0
time step continuity errors : sum local = 2.13775e-11, global = 2.84123e-12, cumulative = 6.54298e-09
PIMPLE: not converged within 2 iterations
 just to make sure 0.00436945
ExecutionTime = 278.93 s  ClockTime = 281 s

forces forces write:
    Sum of forces
        Total    : (0.000604441 0.00169777 -759.316)
        Pressure : (-0.00149276 -1.36894e-05 -737.447)
        Viscous  : (0.0020972 0.00171146 -21.8691)
    Sum of moments
        Total    : (-0.00216608 0.00267592 -1.74554e-05)
        Pressure : (-0.000193192 0.00342738 -1.5933e-06)
        Viscous  : (-0.00197289 -0.000751457 -1.58621e-05)


Courant Number mean: 0.000761534 max: 0.408659
deltaT = 0.00208118
Time = 0.00645062

PIMPLE: iteration 1
smoothSolver:  Solving for Ux, Initial residual = 0.110793, Final residual = 3.42514e-06, No Iterations 5
smoothSolver:  Solving for Uy, Initial residual = 0.110005, Final residual = 3.40171e-06, No Iterations 5
smoothSolver:  Solving for Uz, Initial residual = 0.232633, Final residual = 4.08701e-06, No Iterations 1
GAMG:  Solving for p, Initial residual = 0.386873, Final residual = 0.0032781, No Iterations 8
GAMG:  Solving for p, Initial residual = 0.00200177, Final residual = 1.88645e-05, No Iterations 3
GAMG:  Solving for p, Initial residual = 5.16675e-05, Final residual = 5.34327e-06, No Iterations 2
time step continuity errors : sum local = 1.24301e-09, global = 6.31407e-10, cumulative = 7.17439e-09
GAMG:  Solving for p, Initial residual = 0.021486, Final residual = 0.000182229, No Iterations 8
GAMG:  Solving for p, Initial residual = 0.00139152, Final residual = 1.31509e-05, No Iterations 3
GAMG:  Solving for p, Initial residual = 3.60398e-05, Final residual = 7.047e-06, No Iterations 1
time step continuity errors : sum local = 1.63901e-09, global = 8.0627e-10, cumulative = 7.98066e-09
GAMG:  Solving for p, Initial residual = 0.0215033, Final residual = 0.000182448, No Iterations 8
GAMG:  Solving for p, Initial residual = 0.00139257, Final residual = 1.31623e-05, No Iterations 3
GAMG:  Solving for p, Initial residual = 3.6063e-05, Final residual = 7.05332e-06, No Iterations 1
time step continuity errors : sum local = 1.64045e-09, global = 8.06946e-10, cumulative = 8.78761e-09
GAMG:  Solving for p, Initial residual = 0.0215028, Final residual = 0.000182451, No Iterations 8
GAMG:  Solving for p, Initial residual = 0.00139254, Final residual = 1.31624e-05, No Iterations 3
GAMG:  Solving for p, Initial residual = 3.60614e-05, Final residual = 7.05334e-06, No Iterations 1
time step continuity errors : sum local = 1.64045e-09, global = 8.06945e-10, cumulative = 9.59455e-09
GAMG:  Solving for p, Initial residual = 0.0215025, Final residual = 0.000182452, No Iterations 8
GAMG:  Solving for p, Initial residual = 0.00139251, Final residual = 1.31624e-05, No Iterations 3
GAMG:  Solving for p, Initial residual = 3.60605e-05, Final residual = 7.05333e-06, No Iterations 1
time step continuity errors : sum local = 1.64044e-09, global = 8.06943e-10, cumulative = 1.04015e-08
PIMPLE: iteration 2
smoothSolver:  Solving for Ux, Initial residual = 0.152362, Final residual = 9.31245e-06, No Iterations 46
smoothSolver:  Solving for Uy, Initial residual = 0.151978, Final residual = 9.36234e-06, No Iterations 46
smoothSolver:  Solving for Uz, Initial residual = 0.0935254, Final residual = 6.59817e-06, No Iterations 1
GAMG:  Solving for p, Initial residual = 0.00945904, Final residual = 7.9337e-05, No Iterations 8
GAMG:  Solving for p, Initial residual = 0.0269289, Final residual = 0.000252167, No Iterations 3
GAMG:  Solving for p, Initial residual = 0.000788081, Final residual = 7.31432e-06, No Iterations 6
time step continuity errors : sum local = 4.74448e-11, global = -2.52547e-11, cumulative = 1.03762e-08
GAMG:  Solving for p, Initial residual = 0.00238495, Final residual = 1.47381e-05, No Iterations 7
GAMG:  Solving for p, Initial residual = 0.000457237, Final residual = 5.38084e-06, No Iterations 3
GAMG:  Solving for p, Initial residual = 2.10033e-05, Final residual = 3.86476e-06, No Iterations 1
time step continuity errors : sum local = 2.63635e-11, global = 1.63999e-11, cumulative = 1.03926e-08
GAMG:  Solving for p, Initial residual = 0.000268595, Final residual = 5.56098e-06, No Iterations 5
GAMG:  Solving for p, Initial residual = 5.20571e-05, Final residual = 4.9558e-06, No Iterations 1
GAMG:  Solving for p, Initial residual = 6.07184e-06, Final residual = 6.07184e-06, No Iterations 0
time step continuity errors : sum local = 4.14397e-11, global = 1.09384e-11, cumulative = 1.04036e-08
GAMG:  Solving for p, Initial residual = 9.02557e-05, Final residual = 7.52872e-06, No Iterations 3
GAMG:  Solving for p, Initial residual = 2.06712e-05, Final residual = 4.51556e-06, No Iterations 1
GAMG:  Solving for p, Initial residual = 5.23601e-06, Final residual = 5.23601e-06, No Iterations 0
time step continuity errors : sum local = 3.57392e-11, global = 6.81897e-12, cumulative = 1.04104e-08
GAMG:  Solving for p, Initial residual = 4.00174e-05, Final residual = 6.91727e-06, No Iterations 2
GAMG:  Solving for p, Initial residual = 1.14304e-05, Final residual = 3.77414e-06, No Iterations 1
GAMG:  Solving for p, Initial residual = 4.42757e-06, Final residual = 4.42757e-06, No Iterations 0
time step continuity errors : sum local = 3.02231e-11, global = 4.36161e-12, cumulative = 1.04148e-08
PIMPLE: not converged within 2 iterations
 just to make sure 0.00645062
ExecutionTime = 368.62 s  ClockTime = 370 s

forces forces write:
    Sum of forces
        Total    : (0.00028475 0.00145531 -729.572)
        Pressure : (-0.00220395 -0.000487231 -703.208)
        Viscous  : (0.0024887 0.00194254 -26.3635)
    Sum of moments
        Total    : (-0.00254542 2.46145e-05 -1.45832e-05)
        Pressure : (-0.00044943 0.00200213 -1.90303e-06)
        Viscous  : (-0.00209599 -0.00197752 -1.26802e-05)


Courant Number mean: 0.00130069 max: 0.64291
deltaT = 0.00241937
Time = 0.00886999

PIMPLE: iteration 1
smoothSolver:  Solving for Ux, Initial residual = 0.0904496, Final residual = 2.51167e-06, No Iterations 5
smoothSolver:  Solving for Uy, Initial residual = 0.0899449, Final residual = 2.49614e-06, No Iterations 5
smoothSolver:  Solving for Uz, Initial residual = 0.170922, Final residual = 3.68251e-06, No Iterations 1
GAMG:  Solving for p, Initial residual = 0.287321, Final residual = 0.0024083, No Iterations 8
GAMG:  Solving for p, Initial residual = 0.00198093, Final residual = 1.86477e-05, No Iterations 3
GAMG:  Solving for p, Initial residual = 5.10819e-05, Final residual = 9.96485e-06, No Iterations 1
time step continuity errors : sum local = 2.65487e-09, global = 1.30895e-09, cumulative = 1.17237e-08
GAMG:  Solving for p, Initial residual = 0.0210857, Final residual = 0.000176949, No Iterations 8
GAMG:  Solving for p, Initial residual = 0.00137654, Final residual = 1.30047e-05, No Iterations 3
GAMG:  Solving for p, Initial residual = 3.56228e-05, Final residual = 6.96654e-06, No Iterations 1
time step continuity errors : sum local = 1.85542e-09, global = 9.14956e-10, cumulative = 1.26387e-08
GAMG:  Solving for p, Initial residual = 0.0210948, Final residual = 0.000177074, No Iterations 8
GAMG:  Solving for p, Initial residual = 0.00137749, Final residual = 1.30093e-05, No Iterations 3
GAMG:  Solving for p, Initial residual = 3.56369e-05, Final residual = 6.96889e-06, No Iterations 1
time step continuity errors : sum local = 1.85602e-09, global = 9.15218e-10, cumulative = 1.35539e-08
GAMG:  Solving for p, Initial residual = 0.0210942, Final residual = 0.000177076, No Iterations 8
GAMG:  Solving for p, Initial residual = 0.00137744, Final residual = 1.30094e-05, No Iterations 3
GAMG:  Solving for p, Initial residual = 3.56348e-05, Final residual = 6.96889e-06, No Iterations 1
time step continuity errors : sum local = 1.85601e-09, global = 9.15216e-10, cumulative = 1.44691e-08
GAMG:  Solving for p, Initial residual = 0.0210936, Final residual = 0.000177077, No Iterations 8
GAMG:  Solving for p, Initial residual = 0.0013774, Final residual = 1.30093e-05, No Iterations 3
GAMG:  Solving for p, Initial residual = 3.56335e-05, Final residual = 6.96887e-06, No Iterations 1
time step continuity errors : sum local = 1.856e-09, global = 9.15212e-10, cumulative = 1.53843e-08
PIMPLE: iteration 2
smoothSolver:  Solving for Ux, Initial residual = 0.142405, Final residual = 9.65841e-06, No Iterations 42
smoothSolver:  Solving for Uy, Initial residual = 0.142025, Final residual = 9.69914e-06, No Iterations 42
smoothSolver:  Solving for Uz, Initial residual = 0.0717602, Final residual = 6.36325e-06, No Iterations 1
GAMG:  Solving for p, Initial residual = 0.00930598, Final residual = 7.71396e-05, No Iterations 8
GAMG:  Solving for p, Initial residual = 0.0196989, Final residual = 0.000184221, No Iterations 3
GAMG:  Solving for p, Initial residual = 0.000556838, Final residual = 9.21598e-06, No Iterations 5
time step continuity errors : sum local = 9.61568e-11, global = -5.05672e-11, cumulative = 1.53337e-08
GAMG:  Solving for p, Initial residual = 0.00197695, Final residual = 1.18909e-05, No Iterations 7
GAMG:  Solving for p, Initial residual = 0.000369737, Final residual = 8.72028e-06, No Iterations 2
GAMG:  Solving for p, Initial residual = 1.99464e-05, Final residual = 4.4537e-06, No Iterations 1
time step continuity errors : sum local = 4.83588e-11, global = 2.72713e-11, cumulative = 1.5361e-08
GAMG:  Solving for p, Initial residual = 0.000222373, Final residual = 9.44728e-06, No Iterations 4
GAMG:  Solving for p, Initial residual = 4.46709e-05, Final residual = 6.33031e-06, No Iterations 1
GAMG:  Solving for p, Initial residual = 7.42289e-06, Final residual = 7.42289e-06, No Iterations 0
time step continuity errors : sum local = 8.06466e-11, global = 2.07325e-11, cumulative = 1.53817e-08
GAMG:  Solving for p, Initial residual = 7.75318e-05, Final residual = 6.55847e-06, No Iterations 3
GAMG:  Solving for p, Initial residual = 1.84076e-05, Final residual = 3.8388e-06, No Iterations 1
GAMG:  Solving for p, Initial residual = 4.4459e-06, Final residual = 4.4459e-06, No Iterations 0
time step continuity errors : sum local = 4.83104e-11, global = 1.05853e-11, cumulative = 1.53923e-08
GAMG:  Solving for p, Initial residual = 3.46328e-05, Final residual = 5.70137e-06, No Iterations 2
GAMG:  Solving for p, Initial residual = 1.02757e-05, Final residual = 3.12002e-06, No Iterations 1
GAMG:  Solving for p, Initial residual = 3.74077e-06, Final residual = 3.74077e-06, No Iterations 0
time step continuity errors : sum local = 4.06506e-11, global = 5.13803e-12, cumulative = 1.53975e-08
PIMPLE: not converged within 2 iterations
 just to make sure 0.00886999
ExecutionTime = 457.77 s  ClockTime = 460 s

forces forces write:
    Sum of forces
        Total    : (0.000122119 0.00126604 -645.792)
        Pressure : (-0.00259425 -0.000755635 -615.835)
        Viscous  : (0.00271636 0.00202167 -29.9569)
    Sum of moments
        Total    : (-0.00187939 -0.00303066 -1.01279e-05)
        Pressure : (0.000124017 0.000230681 -2.16806e-06)
        Viscous  : (-0.00200341 -0.00326134 -7.95981e-06)


Courant Number mean: 0.00194946 max: 0.881905
deltaT = 0.00269197
Time = 0.011562

PIMPLE: iteration 1
smoothSolver:  Solving for Ux, Initial residual = 0.0717515, Final residual = 1.96601e-06, No Iterations 5
smoothSolver:  Solving for Uy, Initial residual = 0.0714188, Final residual = 1.95603e-06, No Iterations 5
smoothSolver:  Solving for Uz, Initial residual = 0.113338, Final residual = 2.83949e-06, No Iterations 1
GAMG:  Solving for p, Initial residual = 0.200226, Final residual = 0.00164717, No Iterations 8
GAMG:  Solving for p, Initial residual = 0.00194829, Final residual = 1.83255e-05, No Iterations 3
GAMG:  Solving for p, Initial residual = 5.02113e-05, Final residual = 9.79112e-06, No Iterations 1
time step continuity errors : sum local = 2.36047e-09, global = 1.16577e-09, cumulative = 1.65632e-08
GAMG:  Solving for p, Initial residual = 0.020463, Final residual = 0.000168552, No Iterations 8
GAMG:  Solving for p, Initial residual = 0.00135321, Final residual = 1.27774e-05, No Iterations 3
GAMG:  Solving for p, Initial residual = 3.49974e-05, Final residual = 6.84327e-06, No Iterations 1
time step continuity errors : sum local = 1.64906e-09, global = 8.1459e-10, cumulative = 1.73778e-08
GAMG:  Solving for p, Initial residual = 0.0204738, Final residual = 0.000168696, No Iterations 8
GAMG:  Solving for p, Initial residual = 0.00135426, Final residual = 1.27828e-05, No Iterations 3
GAMG:  Solving for p, Initial residual = 3.50135e-05, Final residual = 6.84611e-06, No Iterations 1
time step continuity errors : sum local = 1.64974e-09, global = 8.1489e-10, cumulative = 1.81927e-08
GAMG:  Solving for p, Initial residual = 0.0204729, Final residual = 0.000168696, No Iterations 8
GAMG:  Solving for p, Initial residual = 0.00135419, Final residual = 1.27828e-05, No Iterations 3
GAMG:  Solving for p, Initial residual = 3.50108e-05, Final residual = 6.84607e-06, No Iterations 1
time step continuity errors : sum local = 1.64973e-09, global = 8.14888e-10, cumulative = 1.90076e-08
GAMG:  Solving for p, Initial residual = 0.0204722, Final residual = 0.000168696, No Iterations 8
GAMG:  Solving for p, Initial residual = 0.00135414, Final residual = 1.27827e-05, No Iterations 3
GAMG:  Solving for p, Initial residual = 3.50091e-05, Final residual = 6.84603e-06, No Iterations 1
time step continuity errors : sum local = 1.64972e-09, global = 8.14884e-10, cumulative = 1.98225e-08
PIMPLE: iteration 2
smoothSolver:  Solving for Ux, Initial residual = 0.125614, Final residual = 9.48186e-06, No Iterations 27
smoothSolver:  Solving for Uy, Initial residual = 0.125219, Final residual = 9.51041e-06, No Iterations 27
smoothSolver:  Solving for Uz, Initial residual = 0.0497541, Final residual = 5.18782e-06, No Iterations 1
GAMG:  Solving for p, Initial residual = 0.00921279, Final residual = 7.49331e-05, No Iterations 8
GAMG:  Solving for p, Initial residual = 0.0152291, Final residual = 0.000142281, No Iterations 3
GAMG:  Solving for p, Initial residual = 0.000421793, Final residual = 6.9623e-06, No Iterations 5
time step continuity errors : sum local = 8.71874e-11, global = -4.59699e-11, cumulative = 1.97765e-08
GAMG:  Solving for p, Initial residual = 0.00168786, Final residual = 1.02733e-05, No Iterations 7
GAMG:  Solving for p, Initial residual = 0.000312012, Final residual = 7.45432e-06, No Iterations 2
GAMG:  Solving for p, Initial residual = 1.66681e-05, Final residual = 3.71013e-06, No Iterations 1
time step continuity errors : sum local = 4.79034e-11, global = 2.58201e-11, cumulative = 1.98023e-08
GAMG:  Solving for p, Initial residual = 0.000188561, Final residual = 7.90371e-06, No Iterations 4
GAMG:  Solving for p, Initial residual = 3.68355e-05, Final residual = 5.20504e-06, No Iterations 1
GAMG:  Solving for p, Initial residual = 6.10893e-06, Final residual = 6.10893e-06, No Iterations 0
time step continuity errors : sum local = 7.89127e-11, global = 2.02963e-11, cumulative = 1.98226e-08
GAMG:  Solving for p, Initial residual = 6.63224e-05, Final residual = 5.43049e-06, No Iterations 3
GAMG:  Solving for p, Initial residual = 1.56761e-05, Final residual = 3.16138e-06, No Iterations 1
GAMG:  Solving for p, Initial residual = 3.67013e-06, Final residual = 3.67013e-06, No Iterations 0
time step continuity errors : sum local = 4.74159e-11, global = 9.64911e-12, cumulative = 1.98323e-08
GAMG:  Solving for p, Initial residual = 3.0422e-05, Final residual = 9.49456e-06, No Iterations 1
GAMG:  Solving for p, Initial residual = 1.17488e-05, Final residual = 5.11693e-06, No Iterations 1
GAMG:  Solving for p, Initial residual = 6.29275e-06, Final residual = 6.29275e-06, No Iterations 0
time step continuity errors : sum local = 8.13004e-11, global = 5.9156e-12, cumulative = 1.98382e-08
PIMPLE: not converged within 2 iterations
 just to make sure 0.011562
ExecutionTime = 546.6 s  ClockTime = 549 s

forces forces write:
    Sum of forces
        Total    : (0.00058904 0.00170464 -499.767)
        Pressure : (-0.00221624 -0.000296119 -467.544)
        Viscous  : (0.00280528 0.00200076 -32.2226)
    Sum of moments
        Total    : (-0.00153979 -0.00534598 -3.48241e-06)
        Pressure : (0.000142955 -0.00082946 -2.4104e-06)
        Viscous  : (-0.00168274 -0.00451652 -1.07201e-06)


Courant Number mean: 0.00256114 max: 1.0595
deltaT = 0.00254646
Time = 0.0141084

PIMPLE: iteration 1
smoothSolver:  Solving for Ux, Initial residual = 0.0474318, Final residual = 6.15244e-06, No Iterations 4
smoothSolver:  Solving for Uy, Initial residual = 0.0472484, Final residual = 6.12601e-06, No Iterations 4
smoothSolver:  Solving for Uz, Initial residual = 0.052856, Final residual = 1.29107e-06, No Iterations 1
GAMG:  Solving for p, Initial residual = 0.12478, Final residual = 0.000971316, No Iterations 8
GAMG:  Solving for p, Initial residual = 0.0018854, Final residual = 1.77274e-05, No Iterations 3
GAMG:  Solving for p, Initial residual = 4.86024e-05, Final residual = 9.47224e-06, No Iterations 1
time step continuity errors : sum local = 1.11473e-09, global = 5.50313e-10, cumulative = 2.03885e-08
GAMG:  Solving for p, Initial residual = 0.0196357, Final residual = 0.000153042, No Iterations 8
GAMG:  Solving for p, Initial residual = 0.00130942, Final residual = 1.23599e-05, No Iterations 3
GAMG:  Solving for p, Initial residual = 3.38723e-05, Final residual = 6.61964e-06, No Iterations 1
time step continuity errors : sum local = 7.7873e-10, global = 3.8452e-10, cumulative = 2.0773e-08
GAMG:  Solving for p, Initial residual = 0.0196448, Final residual = 0.000153159, No Iterations 8
GAMG:  Solving for p, Initial residual = 0.00131039, Final residual = 1.23649e-05, No Iterations 3
GAMG:  Solving for p, Initial residual = 3.38873e-05, Final residual = 6.62226e-06, No Iterations 1
time step continuity errors : sum local = 7.79061e-10, global = 3.84667e-10, cumulative = 2.11577e-08
GAMG:  Solving for p, Initial residual = 0.0196437, Final residual = 0.000153156, No Iterations 8
GAMG:  Solving for p, Initial residual = 0.00131032, Final residual = 1.23648e-05, No Iterations 3
GAMG:  Solving for p, Initial residual = 3.38845e-05, Final residual = 6.62215e-06, No Iterations 1
time step continuity errors : sum local = 7.79058e-10, global = 3.84666e-10, cumulative = 2.15424e-08
GAMG:  Solving for p, Initial residual = 0.0196429, Final residual = 0.000153154, No Iterations 8
GAMG:  Solving for p, Initial residual = 0.00131027, Final residual = 1.23647e-05, No Iterations 3
GAMG:  Solving for p, Initial residual = 3.38829e-05, Final residual = 6.62208e-06, No Iterations 1
time step continuity errors : sum local = 7.79054e-10, global = 3.84664e-10, cumulative = 2.1927e-08
PIMPLE: iteration 2
smoothSolver:  Solving for Ux, Initial residual = 0.0860872, Final residual = 9.50246e-06, No Iterations 40
smoothSolver:  Solving for Uy, Initial residual = 0.0856547, Final residual = 9.50986e-06, No Iterations 40
smoothSolver:  Solving for Uz, Initial residual = 0.0243616, Final residual = 2.43637e-06, No Iterations 1
GAMG:  Solving for p, Initial residual = 0.00957911, Final residual = 7.4503e-05, No Iterations 8
GAMG:  Solving for p, Initial residual = 0.0143189, Final residual = 0.000133784, No Iterations 3
GAMG:  Solving for p, Initial residual = 0.000395697, Final residual = 6.52547e-06, No Iterations 5
time step continuity errors : sum local = 4.51661e-11, global = -2.38017e-11, cumulative = 2.19032e-08
GAMG:  Solving for p, Initial residual = 0.00157613, Final residual = 1.03304e-05, No Iterations 7
GAMG:  Solving for p, Initial residual = 0.000298251, Final residual = 7.33669e-06, No Iterations 2
GAMG:  Solving for p, Initial residual = 1.61839e-05, Final residual = 3.64398e-06, No Iterations 1
time step continuity errors : sum local = 2.55451e-11, global = 1.35103e-11, cumulative = 2.19167e-08
GAMG:  Solving for p, Initial residual = 0.000166945, Final residual = 6.80683e-06, No Iterations 4
GAMG:  Solving for p, Initial residual = 3.32593e-05, Final residual = 4.49927e-06, No Iterations 1
GAMG:  Solving for p, Initial residual = 5.34214e-06, Final residual = 5.34214e-06, No Iterations 0
time step continuity errors : sum local = 3.74673e-11, global = 1.02797e-11, cumulative = 2.1927e-08
GAMG:  Solving for p, Initial residual = 5.72493e-05, Final residual = 9.04107e-06, No Iterations 2
GAMG:  Solving for p, Initial residual = 1.56217e-05, Final residual = 5.13494e-06, No Iterations 1
GAMG:  Solving for p, Initial residual = 5.96591e-06, Final residual = 5.96591e-06, No Iterations 0
time step continuity errors : sum local = 4.18471e-11, global = 7.19971e-12, cumulative = 2.19342e-08
GAMG:  Solving for p, Initial residual = 2.77895e-05, Final residual = 9.09366e-06, No Iterations 1
GAMG:  Solving for p, Initial residual = 1.0946e-05, Final residual = 4.82149e-06, No Iterations 1
GAMG:  Solving for p, Initial residual = 5.74176e-06, Final residual = 5.74176e-06, No Iterations 0
time step continuity errors : sum local = 4.0277e-11, global = 5.02619e-12, cumulative = 2.19392e-08
PIMPLE: not converged within 2 iterations
 just to make sure 0.0141084
ExecutionTime = 637.35 s  ClockTime = 640 s

forces forces write:
    Sum of forces
        Total    : (0.000238267 0.00134949 -319.682)
        Pressure : (-0.0025005 -0.000486157 -286.648)
        Viscous  : (0.00273877 0.00183564 -33.0348)
    Sum of moments
        Total    : (-0.000512381 -0.00888421 1.61897e-06)
        Pressure : (0.000695163 -0.00330019 -2.4039e-06)
        Viscous  : (-0.00120754 -0.00558401 4.02287e-06)


Courant Number mean: 0.00261317 max: 1.00052
deltaT = 0.00254646
Time = 0.0166549

PIMPLE: iteration 1
smoothSolver:  Solving for Ux, Initial residual = 0.0242303, Final residual = 5.14475e-06, No Iterations 4
smoothSolver:  Solving for Uy, Initial residual = 0.0241097, Final residual = 5.12848e-06, No Iterations 4
smoothSolver:  Solving for Uz, Initial residual = 0.00647306, Final residual = 1.72443e-07, No Iterations 1
GAMG:  Solving for p, Initial residual = 0.04133, Final residual = 0.000304612, No Iterations 7
GAMG:  Solving for p, Initial residual = 0.00140624, Final residual = 9.95397e-06, No Iterations 4
GAMG:  Solving for p, Initial residual = 3.71735e-05, Final residual = 5.65718e-06, No Iterations 1
time step continuity errors : sum local = 8.15524e-11, global = 4.02263e-11, cumulative = 2.19795e-08
GAMG:  Solving for p, Initial residual = 0.0185486, Final residual = 0.000136752, No Iterations 7
GAMG:  Solving for p, Initial residual = 0.000972966, Final residual = 6.92326e-06, No Iterations 4
GAMG:  Solving for p, Initial residual = 2.57945e-05, Final residual = 3.94164e-06, No Iterations 1
time step continuity errors : sum local = 5.68691e-11, global = 2.80672e-11, cumulative = 2.20075e-08
GAMG:  Solving for p, Initial residual = 0.0185418, Final residual = 0.000136739, No Iterations 7
GAMG:  Solving for p, Initial residual = 0.000973196, Final residual = 6.92201e-06, No Iterations 4
GAMG:  Solving for p, Initial residual = 2.57885e-05, Final residual = 3.94078e-06, No Iterations 1
time step continuity errors : sum local = 5.68836e-11, global = 2.80738e-11, cumulative = 2.20356e-08
GAMG:  Solving for p, Initial residual = 0.0185367, Final residual = 0.000136702, No Iterations 7
GAMG:  Solving for p, Initial residual = 0.000972939, Final residual = 6.92052e-06, No Iterations 4
GAMG:  Solving for p, Initial residual = 2.57803e-05, Final residual = 3.93982e-06, No Iterations 1
time step continuity errors : sum local = 5.68805e-11, global = 2.80726e-11, cumulative = 2.20637e-08
GAMG:  Solving for p, Initial residual = 0.0185345, Final residual = 0.000136687, No Iterations 7
GAMG:  Solving for p, Initial residual = 0.000972819, Final residual = 6.91989e-06, No Iterations 4
GAMG:  Solving for p, Initial residual = 2.57766e-05, Final residual = 3.9394e-06, No Iterations 1
time step continuity errors : sum local = 5.68789e-11, global = 2.80721e-11, cumulative = 2.20918e-08
PIMPLE: iteration 2
smoothSolver:  Solving for Ux, Initial residual = 0.0229065, Final residual = 9.42949e-06, No Iterations 55
smoothSolver:  Solving for Uy, Initial residual = 0.022764, Final residual = 9.40143e-06, No Iterations 55
smoothSolver:  Solving for Uz, Initial residual = 0.00300732, Final residual = 3.17607e-07, No Iterations 1
GAMG:  Solving for p, Initial residual = 0.0129228, Final residual = 6.96841e-05, No Iterations 8
GAMG:  Solving for p, Initial residual = 0.0086778, Final residual = 8.16761e-05, No Iterations 3
GAMG:  Solving for p, Initial residual = 0.000242354, Final residual = 7.15282e-06, No Iterations 4
time step continuity errors : sum local = 1.47557e-11, global = -7.76989e-12, cumulative = 2.2084e-08
GAMG:  Solving for p, Initial residual = 0.00140422, Final residual = 9.84968e-06, No Iterations 8
GAMG:  Solving for p, Initial residual = 0.000303015, Final residual = 9.07384e-06, No Iterations 2
GAMG:  Solving for p, Initial residual = 2.04837e-05, Final residual = 6.95911e-06, No Iterations 1
time step continuity errors : sum local = 1.33579e-11, global = 8.11862e-12, cumulative = 2.20921e-08
GAMG:  Solving for p, Initial residual = 0.000157013, Final residual = 7.99473e-06, No Iterations 4
GAMG:  Solving for p, Initial residual = 3.40073e-05, Final residual = 6.3257e-06, No Iterations 1
GAMG:  Solving for p, Initial residual = 7.15432e-06, Final residual = 7.15432e-06, No Iterations 0
time step continuity errors : sum local = 1.3736e-11, global = 4.04028e-12, cumulative = 2.20961e-08
GAMG:  Solving for p, Initial residual = 5.15919e-05, Final residual = 5.2571e-06, No Iterations 3
GAMG:  Solving for p, Initial residual = 1.45327e-05, Final residual = 3.253e-06, No Iterations 1
GAMG:  Solving for p, Initial residual = 3.8072e-06, Final residual = 3.8072e-06, No Iterations 0
time step continuity errors : sum local = 7.31308e-12, global = 1.71939e-12, cumulative = 2.20979e-08
GAMG:  Solving for p, Initial residual = 2.35328e-05, Final residual = 8.26485e-06, No Iterations 1
GAMG:  Solving for p, Initial residual = 9.55161e-06, Final residual = 9.55161e-06, No Iterations 0
GAMG:  Solving for p, Initial residual = 9.55161e-06, Final residual = 9.55161e-06, No Iterations 0
time step continuity errors : sum local = 1.83472e-11, global = 1.56617e-12, cumulative = 2.20994e-08
PIMPLE: not converged within 2 iterations
 just to make sure 0.0166549
ExecutionTime = 730 s  ClockTime = 732 s

forces forces write:
    Sum of forces
        Total    : (2.77995e-06 0.000919943 -120.062)
        Pressure : (-0.00241304 -0.00056329 -87.8189)
        Viscous  : (0.00241582 0.00148323 -32.2435)
    Sum of moments
        Total    : (0.000328594 -0.0123473 7.00576e-06)
        Pressure : (0.000900785 -0.00601313 -2.3385e-06)
        Viscous  : (-0.00057219 -0.00633414 9.34426e-06)


Courant Number mean: 0.0026351 max: 0.936997
deltaT = 0.00273649
Time = 0.0193914

PIMPLE: iteration 1
smoothSolver:  Solving for Ux, Initial residual = 0.00907686, Final residual = 5.49892e-06, No Iterations 4
smoothSolver:  Solving for Uy, Initial residual = 0.00905033, Final residual = 5.48474e-06, No Iterations 4
smoothSolver:  Solving for Uz, Initial residual = 0.0448658, Final residual = 1.23927e-06, No Iterations 1
GAMG:  Solving for p, Initial residual = 0.423722, Final residual = 0.00354735, No Iterations 8
GAMG:  Solving for p, Initial residual = 0.00205386, Final residual = 1.93021e-05, No Iterations 3
GAMG:  Solving for p, Initial residual = 5.29632e-05, Final residual = 5.45497e-06, No Iterations 2
time step continuity errors : sum local = 5.91182e-10, global = -3.0162e-10, cumulative = 2.17978e-08
GAMG:  Solving for p, Initial residual = 0.023797, Final residual = 0.000199362, No Iterations 8
GAMG:  Solving for p, Initial residual = 0.00142606, Final residual = 1.3451e-05, No Iterations 3
GAMG:  Solving for p, Initial residual = 3.68845e-05, Final residual = 7.20564e-06, No Iterations 1
time step continuity errors : sum local = 7.80236e-10, global = -3.85392e-10, cumulative = 2.14124e-08
GAMG:  Solving for p, Initial residual = 0.0238329, Final residual = 0.00019978, No Iterations 8
GAMG:  Solving for p, Initial residual = 0.0014276, Final residual = 1.34669e-05, No Iterations 3
GAMG:  Solving for p, Initial residual = 3.69178e-05, Final residual = 7.21435e-06, No Iterations 1
time step continuity errors : sum local = 7.81093e-10, global = -3.85795e-10, cumulative = 2.10266e-08
GAMG:  Solving for p, Initial residual = 0.0238343, Final residual = 0.000199802, No Iterations 8
GAMG:  Solving for p, Initial residual = 0.00142758, Final residual = 1.34674e-05, No Iterations 3
GAMG:  Solving for p, Initial residual = 3.69156e-05, Final residual = 7.21458e-06, No Iterations 1
time step continuity errors : sum local = 7.81086e-10, global = -3.85793e-10, cumulative = 2.06408e-08
GAMG:  Solving for p, Initial residual = 0.0238347, Final residual = 0.00019981, No Iterations 8
GAMG:  Solving for p, Initial residual = 0.00142755, Final residual = 1.34676e-05, No Iterations 3
GAMG:  Solving for p, Initial residual = 3.69141e-05, Final residual = 7.21465e-06, No Iterations 1
time step continuity errors : sum local = 7.81078e-10, global = -3.8579e-10, cumulative = 2.0255e-08
PIMPLE: iteration 2
smoothSolver:  Solving for Ux, Initial residual = 0.137051, Final residual = 9.80727e-06, No Iterations 67
smoothSolver:  Solving for Uy, Initial residual = 0.136624, Final residual = 9.84483e-06, No Iterations 67
smoothSolver:  Solving for Uz, Initial residual = 0.0229114, Final residual = 2.59468e-06, No Iterations 1
GAMG:  Solving for p, Initial residual = 0.00943857, Final residual = 7.70179e-05, No Iterations 8
GAMG:  Solving for p, Initial residual = 0.0210402, Final residual = 0.000196507, No Iterations 3
GAMG:  Solving for p, Initial residual = 0.000598634, Final residual = 9.86376e-06, No Iterations 5
time step continuity errors : sum local = 3.5828e-11, global = 1.8905e-11, cumulative = 2.02739e-08
GAMG:  Solving for p, Initial residual = 0.00278052, Final residual = 2.46012e-05, No Iterations 7
GAMG:  Solving for p, Initial residual = 0.000474663, Final residual = 8.09058e-06, No Iterations 3
GAMG:  Solving for p, Initial residual = 2.49061e-05, Final residual = 6.11325e-06, No Iterations 1
time step continuity errors : sum local = 2.4737e-11, global = -1.62503e-11, cumulative = 2.02577e-08
GAMG:  Solving for p, Initial residual = 0.000320305, Final residual = 7.40488e-06, No Iterations 5
GAMG:  Solving for p, Initial residual = 5.62778e-05, Final residual = 6.75258e-06, No Iterations 1
GAMG:  Solving for p, Initial residual = 7.90673e-06, Final residual = 7.90673e-06, No Iterations 0
time step continuity errors : sum local = 3.20115e-11, global = -8.46087e-12, cumulative = 2.02492e-08
GAMG:  Solving for p, Initial residual = 0.000114629, Final residual = 9.04428e-06, No Iterations 3
GAMG:  Solving for p, Initial residual = 2.68485e-05, Final residual = 5.35355e-06, No Iterations 1
GAMG:  Solving for p, Initial residual = 6.35021e-06, Final residual = 6.35021e-06, No Iterations 0
time step continuity errors : sum local = 2.57093e-11, global = -3.1165e-12, cumulative = 2.02461e-08
GAMG:  Solving for p, Initial residual = 5.57713e-05, Final residual = 5.34574e-06, No Iterations 3
GAMG:  Solving for p, Initial residual = 1.76764e-05, Final residual = 3.11706e-06, No Iterations 1
GAMG:  Solving for p, Initial residual = 3.81939e-06, Final residual = 3.81939e-06, No Iterations 0
time step continuity errors : sum local = 1.54629e-11, global = -5.24339e-13, cumulative = 2.02456e-08
PIMPLE: not converged within 2 iterations
 just to make sure 0.0193914
ExecutionTime = 827.71 s  ClockTime = 830 s

forces forces write:
    Sum of forces
        Total    : (-3.24258e-05 0.000160608 104.642)
        Pressure : (-0.00191253 -0.000695538 134.202)
        Viscous  : (0.0018801 0.000856146 -29.5601)
    Sum of moments
        Total    : (0.00115498 -0.012269 1.3486e-05)
        Pressure : (0.000959914 -0.00561767 -2.11536e-06)
        Viscous  : (0.000195068 -0.00665137 1.56014e-05)


Courant Number mean: 0.0026537 max: 0.858717
deltaT = 0.00306116
Time = 0.0224525

PIMPLE: iteration 1
smoothSolver:  Solving for Ux, Initial residual = 0.0226233, Final residual = 9.60728e-06, No Iterations 4
smoothSolver:  Solving for Uy, Initial residual = 0.0225925, Final residual = 9.59954e-06, No Iterations 4
smoothSolver:  Solving for Uz, Initial residual = 0.125392, Final residual = 3.81114e-06, No Iterations 1
GAMG:  Solving for p, Initial residual = 0.456319, Final residual = 0.00383717, No Iterations 8
GAMG:  Solving for p, Initial residual = 0.00200052, Final residual = 1.87935e-05, No Iterations 3
GAMG:  Solving for p, Initial residual = 5.15561e-05, Final residual = 5.30799e-06, No Iterations 2
time step continuity errors : sum local = 1.58028e-09, global = -8.07561e-10, cumulative = 1.9438e-08
GAMG:  Solving for p, Initial residual = 0.0217765, Final residual = 0.000183263, No Iterations 8
GAMG:  Solving for p, Initial residual = 0.00138858, Final residual = 1.30942e-05, No Iterations 3
GAMG:  Solving for p, Initial residual = 3.58953e-05, Final residual = 7.01238e-06, No Iterations 1
time step continuity errors : sum local = 2.08599e-09, global = -1.03218e-09, cumulative = 1.84059e-08
GAMG:  Solving for p, Initial residual = 0.0218066, Final residual = 0.000183629, No Iterations 8
GAMG:  Solving for p, Initial residual = 0.00139011, Final residual = 1.31098e-05, No Iterations 3
GAMG:  Solving for p, Initial residual = 3.59279e-05, Final residual = 7.02094e-06, No Iterations 1
time step continuity errors : sum local = 2.08839e-09, global = -1.03331e-09, cumulative = 1.73725e-08
GAMG:  Solving for p, Initial residual = 0.0218068, Final residual = 0.00018364, No Iterations 8
GAMG:  Solving for p, Initial residual = 0.00139006, Final residual = 1.31101e-05, No Iterations 3
GAMG:  Solving for p, Initial residual = 3.5925e-05, Final residual = 7.02106e-06, No Iterations 1
time step continuity errors : sum local = 2.08838e-09, global = -1.0333e-09, cumulative = 1.63392e-08
GAMG:  Solving for p, Initial residual = 0.0218065, Final residual = 0.000183645, No Iterations 8
GAMG:  Solving for p, Initial residual = 0.00139001, Final residual = 1.31101e-05, No Iterations 3
GAMG:  Solving for p, Initial residual = 3.5923e-05, Final residual = 7.02107e-06, No Iterations 1
time step continuity errors : sum local = 2.08836e-09, global = -1.03329e-09, cumulative = 1.5306e-08
PIMPLE: iteration 2
smoothSolver:  Solving for Ux, Initial residual = 0.229323, Final residual = 9.42705e-06, No Iterations 69
smoothSolver:  Solving for Uy, Initial residual = 0.229788, Final residual = 9.50429e-06, No Iterations 69
smoothSolver:  Solving for Uz, Initial residual = 0.0696027, Final residual = 8.77763e-06, No Iterations 1
GAMG:  Solving for p, Initial residual = 0.00898097, Final residual = 7.40434e-05, No Iterations 8
GAMG:  Solving for p, Initial residual = 0.0143403, Final residual = 0.000133895, No Iterations 3
GAMG:  Solving for p, Initial residual = 0.000395299, Final residual = 6.50792e-06, No Iterations 5
time step continuity errors : sum local = 1.00123e-10, global = 5.29248e-11, cumulative = 1.53589e-08
GAMG:  Solving for p, Initial residual = 0.00180096, Final residual = 1.24197e-05, No Iterations 7
GAMG:  Solving for p, Initial residual = 0.00031691, Final residual = 8.56981e-06, No Iterations 2
GAMG:  Solving for p, Initial residual = 1.83586e-05, Final residual = 4.76955e-06, No Iterations 1
time step continuity errors : sum local = 7.75844e-11, global = -4.89894e-11, cumulative = 1.53099e-08
GAMG:  Solving for p, Initial residual = 0.00022358, Final residual = 9.57147e-06, No Iterations 4
GAMG:  Solving for p, Initial residual = 4.18558e-05, Final residual = 6.81397e-06, No Iterations 1
GAMG:  Solving for p, Initial residual = 7.68525e-06, Final residual = 7.68525e-06, No Iterations 0
time step continuity errors : sum local = 1.2508e-10, global = -3.13541e-11, cumulative = 1.52785e-08
GAMG:  Solving for p, Initial residual = 8.29519e-05, Final residual = 6.62363e-06, No Iterations 3
GAMG:  Solving for p, Initial residual = 2.004e-05, Final residual = 3.89757e-06, No Iterations 1
GAMG:  Solving for p, Initial residual = 4.6233e-06, Final residual = 4.6233e-06, No Iterations 0
time step continuity errors : sum local = 7.52511e-11, global = -1.11536e-11, cumulative = 1.52674e-08
GAMG:  Solving for p, Initial residual = 4.02926e-05, Final residual = 7.41267e-06, No Iterations 2
GAMG:  Solving for p, Initial residual = 1.46011e-05, Final residual = 3.96627e-06, No Iterations 1
GAMG:  Solving for p, Initial residual = 4.93826e-06, Final residual = 4.93826e-06, No Iterations 0
time step continuity errors : sum local = 8.03761e-11, global = -3.12278e-12, cumulative = 1.52643e-08
PIMPLE: not converged within 2 iterations
 just to make sure 0.0224525
ExecutionTime = 931.91 s  ClockTime = 935 s

forces forces write:
    Sum of forces
        Total    : (-8.75498e-05 -0.000301397 351.385)
        Pressure : (-0.00130213 -0.000409792 376.315)
        Viscous  : (0.00121458 0.000108395 -24.9301)
    Sum of moments
        Total    : (0.00189147 -0.0135213 1.98342e-05)
        Pressure : (0.000927168 -0.00708925 -1.71257e-06)
        Viscous  : (0.000964298 -0.00643205 2.15467e-05)


Courant Number mean: 0.00248528 max: 0.69454
deltaT = 0.00348132
Time = 0.0259339

PIMPLE: iteration 1
smoothSolver:  Solving for Ux, Initial residual = 0.0882891, Final residual = 6.25118e-06, No Iterations 5
smoothSolver:  Solving for Uy, Initial residual = 0.0883702, Final residual = 6.251e-06, No Iterations 5
smoothSolver:  Solving for Uz, Initial residual = 0.294142, Final residual = 9.08074e-07, No Iterations 2
GAMG:  Solving for p, Initial residual = 0.280116, Final residual = 0.00235977, No Iterations 8
GAMG:  Solving for p, Initial residual = 0.00196936, Final residual = 1.85067e-05, No Iterations 3
GAMG:  Solving for p, Initial residual = 5.07369e-05, Final residual = 9.8864e-06, No Iterations 1
time step continuity errors : sum local = 5.80642e-09, global = -2.87799e-09, cumulative = 1.23863e-08
GAMG:  Solving for p, Initial residual = 0.0208335, Final residual = 0.00017563, No Iterations 8
GAMG:  Solving for p, Initial residual = 0.00136763, Final residual = 1.29022e-05, No Iterations 3
GAMG:  Solving for p, Initial residual = 3.53475e-05, Final residual = 6.90858e-06, No Iterations 1
time step continuity errors : sum local = 4.05388e-09, global = -2.00995e-09, cumulative = 1.03763e-08
GAMG:  Solving for p, Initial residual = 0.0208577, Final residual = 0.000175875, No Iterations 8
GAMG:  Solving for p, Initial residual = 0.00136908, Final residual = 1.29106e-05, No Iterations 3
GAMG:  Solving for p, Initial residual = 3.5373e-05, Final residual = 6.91308e-06, No Iterations 1
time step continuity errors : sum local = 4.05621e-09, global = -2.01098e-09, cumulative = 8.36535e-09
GAMG:  Solving for p, Initial residual = 0.0208589, Final residual = 0.000175888, No Iterations 8
GAMG:  Solving for p, Initial residual = 0.00136907, Final residual = 1.2911e-05, No Iterations 3
GAMG:  Solving for p, Initial residual = 3.53715e-05, Final residual = 6.91327e-06, No Iterations 1
time step continuity errors : sum local = 4.0562e-09, global = -2.01098e-09, cumulative = 6.35437e-09
GAMG:  Solving for p, Initial residual = 0.020859, Final residual = 0.000175892, No Iterations 8
GAMG:  Solving for p, Initial residual = 0.00136904, Final residual = 1.29111e-05, No Iterations 3
GAMG:  Solving for p, Initial residual = 3.53702e-05, Final residual = 6.91331e-06, No Iterations 1
time step continuity errors : sum local = 4.05617e-09, global = -2.01097e-09, cumulative = 4.3434e-09
PIMPLE: iteration 2
smoothSolver:  Solving for Ux, Initial residual = 0.215429, Final residual = 9.92893e-06, No Iterations 66
smoothSolver:  Solving for Uy, Initial residual = 0.215654, Final residual = 9.9938e-06, No Iterations 66
smoothSolver:  Solving for Uz, Initial residual = 0.201956, Final residual = 9.12683e-06, No Iterations 2
GAMG:  Solving for p, Initial residual = 0.0085884, Final residual = 7.08609e-05, No Iterations 8
GAMG:  Solving for p, Initial residual = 0.0106287, Final residual = 9.83844e-05, No Iterations 3
GAMG:  Solving for p, Initial residual = 0.000288538, Final residual = 8.62226e-06, No Iterations 4
time step continuity errors : sum local = 3.57268e-10, global = 1.88459e-10, cumulative = 4.53186e-09
GAMG:  Solving for p, Initial residual = 0.00126552, Final residual = 8.3582e-06, No Iterations 7
GAMG:  Solving for p, Initial residual = 0.000276145, Final residual = 6.34968e-06, No Iterations 2
GAMG:  Solving for p, Initial residual = 1.53796e-05, Final residual = 3.30696e-06, No Iterations 1
time step continuity errors : sum local = 1.41479e-10, global = -8.17579e-11, cumulative = 4.4501e-09
GAMG:  Solving for p, Initial residual = 0.000143922, Final residual = 7.13358e-06, No Iterations 4
GAMG:  Solving for p, Initial residual = 4.04846e-05, Final residual = 5.00319e-06, No Iterations 1
GAMG:  Solving for p, Initial residual = 6.00498e-06, Final residual = 6.00498e-06, No Iterations 0
time step continuity errors : sum local = 2.57054e-10, global = -6.76822e-11, cumulative = 4.38242e-09
GAMG:  Solving for p, Initial residual = 5.43414e-05, Final residual = 5.89268e-06, No Iterations 3
GAMG:  Solving for p, Initial residual = 1.84447e-05, Final residual = 3.39774e-06, No Iterations 1
GAMG:  Solving for p, Initial residual = 4.07599e-06, Final residual = 4.07599e-06, No Iterations 0
time step continuity errors : sum local = 1.74508e-10, global = -3.83561e-11, cumulative = 4.34406e-09
GAMG:  Solving for p, Initial residual = 2.73098e-05, Final residual = 5.82314e-06, No Iterations 2
GAMG:  Solving for p, Initial residual = 1.04254e-05, Final residual = 3.14319e-06, No Iterations 1
GAMG:  Solving for p, Initial residual = 3.76327e-06, Final residual = 3.76327e-06, No Iterations 0
time step continuity errors : sum local = 1.61131e-10, global = -2.57158e-11, cumulative = 4.31835e-09
PIMPLE: not converged within 2 iterations
 just to make sure 0.0259339
ExecutionTime = 1044.08 s  ClockTime = 1047 s

forces forces write:
    Sum of forces
        Total    : (-0.000811092 -0.00203997 584.592)
        Pressure : (-0.00107256 -0.00123968 601.042)
        Viscous  : (0.000261472 -0.00080029 -16.4495)
    Sum of moments
        Total    : (0.00243935 -0.0133231 2.66421e-05)
        Pressure : (4.05409e-05 -0.00746701 -1.04779e-06)
        Viscous  : (0.0023988 -0.00585608 2.76899e-05)


Courant Number mean: 0.00188597 max: 0.381526
deltaT = 0.00414443
Time = 0.0300783

PIMPLE: iteration 1
smoothSolver:  Solving for Ux, Initial residual = 0.178552, Final residual = 3.97297e-06, No Iterations 6
smoothSolver:  Solving for Uy, Initial residual = 0.176659, Final residual = 3.93933e-06, No Iterations 6
smoothSolver:  Solving for Uz, Initial residual = 0.999316, Final residual = 3.82501e-06, No Iterations 2
GAMG:  Solving for p, Initial residual = 0.195095, Final residual = 0.00163979, No Iterations 8
GAMG:  Solving for p, Initial residual = 0.00193614, Final residual = 1.81837e-05, No Iterations 3
GAMG:  Solving for p, Initial residual = 4.99089e-05, Final residual = 9.71321e-06, No Iterations 1
time step continuity errors : sum local = 1.03593e-08, global = -5.14873e-09, cumulative = -8.30386e-10
GAMG:  Solving for p, Initial residual = 0.0199004, Final residual = 0.000167481, No Iterations 8
GAMG:  Solving for p, Initial residual = 0.00134398, Final residual = 1.26748e-05, No Iterations 3
GAMG:  Solving for p, Initial residual = 3.47501e-05, Final residual = 6.78593e-06, No Iterations 1
time step continuity errors : sum local = 7.23068e-09, global = -3.595e-09, cumulative = -4.42539e-09
GAMG:  Solving for p, Initial residual = 0.0199269, Final residual = 0.000167716, No Iterations 8
GAMG:  Solving for p, Initial residual = 0.00134547, Final residual = 1.26835e-05, No Iterations 3
GAMG:  Solving for p, Initial residual = 3.4776e-05, Final residual = 6.79061e-06, No Iterations 1
time step continuity errors : sum local = 7.23519e-09, global = -3.59699e-09, cumulative = -8.02237e-09
GAMG:  Solving for p, Initial residual = 0.0199276, Final residual = 0.000167726, No Iterations 8
GAMG:  Solving for p, Initial residual = 0.00134544, Final residual = 1.26838e-05, No Iterations 3
GAMG:  Solving for p, Initial residual = 3.47737e-05, Final residual = 6.79076e-06, No Iterations 1
time step continuity errors : sum local = 7.23518e-09, global = -3.59698e-09, cumulative = -1.16194e-08
GAMG:  Solving for p, Initial residual = 0.0199275, Final residual = 0.00016773, No Iterations 8
GAMG:  Solving for p, Initial residual = 0.0013454, Final residual = 1.26839e-05, No Iterations 3
GAMG:  Solving for p, Initial residual = 3.47719e-05, Final residual = 6.79077e-06, No Iterations 1
time step continuity errors : sum local = 7.23512e-09, global = -3.59696e-09, cumulative = -1.52163e-08
PIMPLE: iteration 2
smoothSolver:  Solving for Ux, Initial residual = 0.202318, Final residual = 9.85104e-06, No Iterations 66
smoothSolver:  Solving for Uy, Initial residual = 0.202421, Final residual = 9.90626e-06, No Iterations 66
smoothSolver:  Solving for Uz, Initial residual = 0.999979, Final residual = 8.27901e-06, No Iterations 5
GAMG:  Solving for p, Initial residual = 0.00804788, Final residual = 6.59985e-05, No Iterations 8
GAMG:  Solving for p, Initial residual = 0.0073898, Final residual = 6.7906e-05, No Iterations 3
GAMG:  Solving for p, Initial residual = 0.000198719, Final residual = 5.84988e-06, No Iterations 4
time step continuity errors : sum local = 6.22423e-10, global = 3.28847e-10, cumulative = -1.48875e-08
GAMG:  Solving for p, Initial residual = 0.000890509, Final residual = 6.6356e-06, No Iterations 7
GAMG:  Solving for p, Initial residual = 0.000228751, Final residual = 5.04301e-06, No Iterations 2
GAMG:  Solving for p, Initial residual = 1.30638e-05, Final residual = 2.51164e-06, No Iterations 1
time step continuity errors : sum local = 2.72002e-10, global = -1.41223e-10, cumulative = -1.50287e-08
GAMG:  Solving for p, Initial residual = 9.7171e-05, Final residual = 6.08413e-06, No Iterations 4
GAMG:  Solving for p, Initial residual = 3.78951e-05, Final residual = 4.2934e-06, No Iterations 1
GAMG:  Solving for p, Initial residual = 5.27859e-06, Final residual = 5.27859e-06, No Iterations 0
time step continuity errors : sum local = 5.71947e-10, global = -1.35201e-10, cumulative = -1.51639e-08
GAMG:  Solving for p, Initial residual = 3.99741e-05, Final residual = 6.20422e-06, No Iterations 3
GAMG:  Solving for p, Initial residual = 2.10638e-05, Final residual = 3.58939e-06, No Iterations 1
GAMG:  Solving for p, Initial residual = 4.39747e-06, Final residual = 4.39747e-06, No Iterations 0
time step continuity errors : sum local = 4.76562e-10, global = -8.57813e-11, cumulative = -1.52497e-08
GAMG:  Solving for p, Initial residual = 2.35249e-05, Final residual = 7.29842e-06, No Iterations 2
GAMG:  Solving for p, Initial residual = 1.43484e-05, Final residual = 3.96723e-06, No Iterations 1
GAMG:  Solving for p, Initial residual = 4.93204e-06, Final residual = 4.93204e-06, No Iterations 0
time step continuity errors : sum local = 5.3455e-10, global = -6.32081e-11, cumulative = -1.53129e-08
PIMPLE: not converged within 2 iterations
 just to make sure 0.0300783
ExecutionTime = 1158.01 s  ClockTime = 1161 s

forces forces write:
    Sum of forces
        Total    : (-0.0014013 -0.00277746 773.868)
        Pressure : (-0.000132646 -0.000860069 772.974)
        Viscous  : (-0.00126866 -0.00191739 0.893492)
    Sum of moments
        Total    : (0.00296717 -0.00791099 3.38967e-05)
        Pressure : (-0.00133817 -0.00525815 3.49809e-07)
        Viscous  : (0.00430535 -0.00265284 3.35468e-05)


Courant Number mean: 0.000574772 max: 0.55156
deltaT = 0.00485491
Time = 0.0349332

PIMPLE: iteration 1
smoothSolver:  Solving for Ux, Initial residual = 0.218607, Final residual = 4.06136e-06, No Iterations 6
smoothSolver:  Solving for Uy, Initial residual = 0.216962, Final residual = 4.02799e-06, No Iterations 6
smoothSolver:  Solving for Uz, Initial residual = 0.999974, Final residual = 4.6433e-06, No Iterations 2
GAMG:  Solving for p, Initial residual = 0.124768, Final residual = 0.00103831, No Iterations 8
GAMG:  Solving for p, Initial residual = 0.00187897, Final residual = 1.76413e-05, No Iterations 3
GAMG:  Solving for p, Initial residual = 4.84693e-05, Final residual = 9.4262e-06, No Iterations 1
time step continuity errors : sum local = 1.49795e-08, global = -7.46495e-09, cumulative = -2.27778e-08
GAMG:  Solving for p, Initial residual = 0.0185044, Final residual = 0.00015415, No Iterations 8
GAMG:  Solving for p, Initial residual = 0.00130384, Final residual = 1.22956e-05, No Iterations 3
GAMG:  Solving for p, Initial residual = 3.3728e-05, Final residual = 6.58414e-06, No Iterations 1
time step continuity errors : sum local = 1.04546e-08, global = -5.21201e-09, cumulative = -2.79898e-08
GAMG:  Solving for p, Initial residual = 0.0185245, Final residual = 0.00015434, No Iterations 8
GAMG:  Solving for p, Initial residual = 0.00130527, Final residual = 1.23037e-05, No Iterations 3
GAMG:  Solving for p, Initial residual = 3.37521e-05, Final residual = 6.58853e-06, No Iterations 1
time step continuity errors : sum local = 1.0461e-08, global = -5.21479e-09, cumulative = -3.32046e-08
GAMG:  Solving for p, Initial residual = 0.0185247, Final residual = 0.000154347, No Iterations 8
GAMG:  Solving for p, Initial residual = 0.00130522, Final residual = 1.23039e-05, No Iterations 3
GAMG:  Solving for p, Initial residual = 3.3749e-05, Final residual = 6.58862e-06, No Iterations 1
time step continuity errors : sum local = 1.0461e-08, global = -5.21478e-09, cumulative = -3.84194e-08
GAMG:  Solving for p, Initial residual = 0.0185245, Final residual = 0.000154349, No Iterations 8
GAMG:  Solving for p, Initial residual = 0.00130516, Final residual = 1.23039e-05, No Iterations 3
GAMG:  Solving for p, Initial residual = 3.37467e-05, Final residual = 6.5886e-06, No Iterations 1
time step continuity errors : sum local = 1.04609e-08, global = -5.21473e-09, cumulative = -4.36341e-08
PIMPLE: iteration 2
smoothSolver:  Solving for Ux, Initial residual = 0.193152, Final residual = 9.97399e-06, No Iterations 66
smoothSolver:  Solving for Uy, Initial residual = 0.193192, Final residual = 9.43335e-06, No Iterations 67
smoothSolver:  Solving for Uz, Initial residual = 0.317051, Final residual = 6.61121e-06, No Iterations 4
GAMG:  Solving for p, Initial residual = 0.00733469, Final residual = 6.00477e-05, No Iterations 8
GAMG:  Solving for p, Initial residual = 0.0051608, Final residual = 4.74221e-05, No Iterations 3
GAMG:  Solving for p, Initial residual = 0.00013755, Final residual = 7.22605e-06, No Iterations 3
time step continuity errors : sum local = 1.58687e-09, global = 8.38452e-10, cumulative = -4.27957e-08
GAMG:  Solving for p, Initial residual = 0.000707761, Final residual = 9.93953e-06, No Iterations 6
GAMG:  Solving for p, Initial residual = 0.000178303, Final residual = 5.55608e-06, No Iterations 2
GAMG:  Solving for p, Initial residual = 1.15204e-05, Final residual = 2.68986e-06, No Iterations 1
time step continuity errors : sum local = 6.04427e-10, global = -3.16685e-10, cumulative = -4.31124e-08
GAMG:  Solving for p, Initial residual = 7.9673e-05, Final residual = 9.05635e-06, No Iterations 3
GAMG:  Solving for p, Initial residual = 2.98586e-05, Final residual = 5.17787e-06, No Iterations 1
GAMG:  Solving for p, Initial residual = 6.35806e-06, Final residual = 6.35806e-06, No Iterations 0
time step continuity errors : sum local = 1.42946e-09, global = -3.14952e-10, cumulative = -4.34273e-08
GAMG:  Solving for p, Initial residual = 3.28943e-05, Final residual = 9.06437e-06, No Iterations 2
GAMG:  Solving for p, Initial residual = 1.73388e-05, Final residual = 4.86676e-06, No Iterations 1
GAMG:  Solving for p, Initial residual = 5.97634e-06, Final residual = 5.97634e-06, No Iterations 0
time step continuity errors : sum local = 1.34384e-09, global = -2.24736e-10, cumulative = -4.36521e-08
GAMG:  Solving for p, Initial residual = 2.01799e-05, Final residual = 5.53359e-06, No Iterations 2
GAMG:  Solving for p, Initial residual = 1.05342e-05, Final residual = 2.98576e-06, No Iterations 1
GAMG:  Solving for p, Initial residual = 3.65588e-06, Final residual = 3.65588e-06, No Iterations 0
time step continuity errors : sum local = 8.22152e-10, global = -1.42198e-10, cumulative = -4.37942e-08
PIMPLE: not converged within 2 iterations
 just to make sure 0.0349332
ExecutionTime = 1270.72 s  ClockTime = 1274 s

forces forces write:
    Sum of forces
        Total    : (-0.000447587 -0.00161681 867.358)
        Pressure : (0.00182238 0.000785865 851.55)
        Viscous  : (-0.00226996 -0.00240268 15.808)
    Sum of moments
        Total    : (0.00605887 -0.000765014 3.06262e-05)
        Pressure : (0.00119196 -0.0020155 1.59591e-06)
        Viscous  : (0.00486691 0.00125049 2.90303e-05)


Courant Number mean: 0.00173958 max: 1.55174
deltaT = 0.00311447
Time = 0.0380477

PIMPLE: iteration 1
smoothSolver:  Solving for Ux, Initial residual = 0.120765, Final residual = 3.10245e-06, No Iterations 5
smoothSolver:  Solving for Uy, Initial residual = 0.120174, Final residual = 3.08767e-06, No Iterations 5
smoothSolver:  Solving for Uz, Initial residual = 0.389414, Final residual = 1.13614e-06, No Iterations 2
GAMG:  Solving for p, Initial residual = 0.0683263, Final residual = 0.000528232, No Iterations 8
GAMG:  Solving for p, Initial residual = 0.00176204, Final residual = 1.65285e-05, No Iterations 3
GAMG:  Solving for p, Initial residual = 4.54975e-05, Final residual = 8.83513e-06, No Iterations 1
time step continuity errors : sum local = 4.93877e-09, global = -2.45003e-09, cumulative = -4.62443e-08
GAMG:  Solving for p, Initial residual = 0.0165782, Final residual = 0.000128301, No Iterations 8
GAMG:  Solving for p, Initial residual = 0.00122402, Final residual = 1.15261e-05, No Iterations 3
GAMG:  Solving for p, Initial residual = 3.16928e-05, Final residual = 6.17414e-06, No Iterations 1
time step continuity errors : sum local = 3.44959e-09, global = -1.71175e-09, cumulative = -4.7956e-08
GAMG:  Solving for p, Initial residual = 0.0165899, Final residual = 0.000128403, No Iterations 8
GAMG:  Solving for p, Initial residual = 0.00122511, Final residual = 1.15316e-05, No Iterations 3
GAMG:  Solving for p, Initial residual = 3.17106e-05, Final residual = 6.17706e-06, No Iterations 1
time step continuity errors : sum local = 3.45115e-09, global = -1.71243e-09, cumulative = -4.96685e-08
GAMG:  Solving for p, Initial residual = 0.0165898, Final residual = 0.000128405, No Iterations 8
GAMG:  Solving for p, Initial residual = 0.00122507, Final residual = 1.15317e-05, No Iterations 3
GAMG:  Solving for p, Initial residual = 3.17083e-05, Final residual = 6.17708e-06, No Iterations 1
time step continuity errors : sum local = 3.45113e-09, global = -1.71243e-09, cumulative = -5.13809e-08
GAMG:  Solving for p, Initial residual = 0.0165896, Final residual = 0.000128406, No Iterations 8
GAMG:  Solving for p, Initial residual = 0.00122503, Final residual = 1.15317e-05, No Iterations 3
GAMG:  Solving for p, Initial residual = 3.17068e-05, Final residual = 6.17705e-06, No Iterations 1
time step continuity errors : sum local = 3.45111e-09, global = -1.71242e-09, cumulative = -5.30933e-08
PIMPLE: iteration 2
smoothSolver:  Solving for Ux, Initial residual = 0.166735, Final residual = 9.40786e-06, No Iterations 51
smoothSolver:  Solving for Uy, Initial residual = 0.166362, Final residual = 9.42153e-06, No Iterations 51
smoothSolver:  Solving for Uz, Initial residual = 0.136808, Final residual = 5.92808e-06, No Iterations 2
GAMG:  Solving for p, Initial residual = 0.00878911, Final residual = 6.97584e-05, No Iterations 8
GAMG:  Solving for p, Initial residual = 0.00955677, Final residual = 8.9139e-05, No Iterations 3
GAMG:  Solving for p, Initial residual = 0.000258127, Final residual = 7.79115e-06, No Iterations 4
time step continuity errors : sum local = 4.08721e-10, global = 2.15479e-10, cumulative = -5.28778e-08
GAMG:  Solving for p, Initial residual = 0.000960784, Final residual = 6.33392e-06, No Iterations 7
GAMG:  Solving for p, Initial residual = 0.000229948, Final residual = 4.96901e-06, No Iterations 2
GAMG:  Solving for p, Initial residual = 1.20584e-05, Final residual = 2.42961e-06, No Iterations 1
time step continuity errors : sum local = 1.32141e-10, global = -6.93572e-11, cumulative = -5.29472e-08
GAMG:  Solving for p, Initial residual = 0.000108014, Final residual = 5.46111e-06, No Iterations 4
GAMG:  Solving for p, Initial residual = 3.29941e-05, Final residual = 3.72915e-06, No Iterations 1
GAMG:  Solving for p, Initial residual = 4.59275e-06, Final residual = 4.59275e-06, No Iterations 0
time step continuity errors : sum local = 2.4993e-10, global = -6.32702e-11, cumulative = -5.30105e-08
GAMG:  Solving for p, Initial residual = 4.11844e-05, Final residual = 9.05823e-06, No Iterations 2
GAMG:  Solving for p, Initial residual = 1.73187e-05, Final residual = 4.84808e-06, No Iterations 1
GAMG:  Solving for p, Initial residual = 5.9382e-06, Final residual = 5.9382e-06, No Iterations 0
time step continuity errors : sum local = 3.23185e-10, global = -4.71168e-11, cumulative = -5.30576e-08
GAMG:  Solving for p, Initial residual = 2.31653e-05, Final residual = 5.17674e-06, No Iterations 2
GAMG:  Solving for p, Initial residual = 9.65568e-06, Final residual = 9.65568e-06, No Iterations 0
GAMG:  Solving for p, Initial residual = 9.65568e-06, Final residual = 9.65568e-06, No Iterations 0
time step continuity errors : sum local = 5.25541e-10, global = -3.78187e-11, cumulative = -5.30954e-08
PIMPLE: not converged within 2 iterations
 just to make sure 0.0380477
ExecutionTime = 1381.22 s  ClockTime = 1385 s

forces forces write:
    Sum of forces
        Total    : (-0.000588489 -0.0024761 786.077)
        Pressure : (0.00165915 -0.000590322 761.45)
        Viscous  : (-0.00224763 -0.00188578 24.6272)
    Sum of moments
        Total    : (0.00112582 0.00437719 1.69106e-05)
        Pressure : (-0.00298728 6.78515e-05 1.94189e-06)
        Viscous  : (0.00411309 0.00430934 1.49687e-05)


Courant Number mean: 0.00199375 max: 1.27453
deltaT = 0.00245382
Time = 0.0405015

PIMPLE: iteration 1
smoothSolver:  Solving for Ux, Initial residual = 0.0618849, Final residual = 4.76988e-06, No Iterations 4
smoothSolver:  Solving for Uy, Initial residual = 0.0618326, Final residual = 4.75971e-06, No Iterations 4
smoothSolver:  Solving for Uz, Initial residual = 0.176725, Final residual = 4.19979e-06, No Iterations 1
GAMG:  Solving for p, Initial residual = 0.111343, Final residual = 0.000813207, No Iterations 8
GAMG:  Solving for p, Initial residual = 0.00185636, Final residual = 1.74377e-05, No Iterations 3
GAMG:  Solving for p, Initial residual = 4.78989e-05, Final residual = 9.32501e-06, No Iterations 1
time step continuity errors : sum local = 2.54135e-09, global = -1.25486e-09, cumulative = -5.43502e-08
GAMG:  Solving for p, Initial residual = 0.020024, Final residual = 0.000146449, No Iterations 8
GAMG:  Solving for p, Initial residual = 0.0012897, Final residual = 1.21614e-05, No Iterations 3
GAMG:  Solving for p, Initial residual = 3.3383e-05, Final residual = 6.51823e-06, No Iterations 1
time step continuity errors : sum local = 1.77576e-09, global = -8.77006e-10, cumulative = -5.52272e-08
GAMG:  Solving for p, Initial residual = 0.0200341, Final residual = 0.000146549, No Iterations 8
GAMG:  Solving for p, Initial residual = 0.00129064, Final residual = 1.2166e-05, No Iterations 3
GAMG:  Solving for p, Initial residual = 3.33968e-05, Final residual = 6.52058e-06, No Iterations 1
time step continuity errors : sum local = 1.77639e-09, global = -8.77279e-10, cumulative = -5.61045e-08
GAMG:  Solving for p, Initial residual = 0.0200336, Final residual = 0.00014655, No Iterations 8
GAMG:  Solving for p, Initial residual = 0.00129058, Final residual = 1.2166e-05, No Iterations 3
GAMG:  Solving for p, Initial residual = 3.33941e-05, Final residual = 6.52056e-06, No Iterations 1
time step continuity errors : sum local = 1.77638e-09, global = -8.77276e-10, cumulative = -5.69818e-08
GAMG:  Solving for p, Initial residual = 0.0200331, Final residual = 0.000146551, No Iterations 8
GAMG:  Solving for p, Initial residual = 0.00129054, Final residual = 1.2166e-05, No Iterations 3
GAMG:  Solving for p, Initial residual = 3.33925e-05, Final residual = 6.52052e-06, No Iterations 1
time step continuity errors : sum local = 1.77637e-09, global = -8.77271e-10, cumulative = -5.78591e-08
PIMPLE: iteration 2
smoothSolver:  Solving for Ux, Initial residual = 0.133056, Final residual = 9.77837e-06, No Iterations 32
smoothSolver:  Solving for Uy, Initial residual = 0.131452, Final residual = 9.70187e-06, No Iterations 32
smoothSolver:  Solving for Uz, Initial residual = 0.0733555, Final residual = 7.28086e-06, No Iterations 1
GAMG:  Solving for p, Initial residual = 0.0104781, Final residual = 7.56401e-05, No Iterations 8
GAMG:  Solving for p, Initial residual = 0.016556, Final residual = 0.000155142, No Iterations 3
GAMG:  Solving for p, Initial residual = 0.000462697, Final residual = 7.64349e-06, No Iterations 5
time step continuity errors : sum local = 1.08372e-10, global = 5.70503e-11, cumulative = -5.7802e-08
GAMG:  Solving for p, Initial residual = 0.00155095, Final residual = 9.79987e-06, No Iterations 7
GAMG:  Solving for p, Initial residual = 0.000309944, Final residual = 7.17771e-06, No Iterations 2
GAMG:  Solving for p, Initial residual = 1.62289e-05, Final residual = 3.53639e-06, No Iterations 1
time step continuity errors : sum local = 5.28553e-11, global = -2.78103e-11, cumulative = -5.78298e-08
GAMG:  Solving for p, Initial residual = 0.000179679, Final residual = 7.81086e-06, No Iterations 4
GAMG:  Solving for p, Initial residual = 3.73843e-05, Final residual = 5.14765e-06, No Iterations 1
GAMG:  Solving for p, Initial residual = 6.08014e-06, Final residual = 6.08014e-06, No Iterations 0
time step continuity errors : sum local = 9.09281e-11, global = -2.31581e-11, cumulative = -5.7853e-08
GAMG:  Solving for p, Initial residual = 6.33734e-05, Final residual = 5.55462e-06, No Iterations 3
GAMG:  Solving for p, Initial residual = 1.55478e-05, Final residual = 3.2414e-06, No Iterations 1
GAMG:  Solving for p, Initial residual = 3.75155e-06, Final residual = 3.75155e-06, No Iterations 0
time step continuity errors : sum local = 5.611e-11, global = -1.22199e-11, cumulative = -5.78652e-08
GAMG:  Solving for p, Initial residual = 2.87724e-05, Final residual = 9.06815e-06, No Iterations 1
[...]
GAMG:  Solving for p, Initial residual = 0.0290096, Final residual = 0.000258783, No Iterations 7
GAMG:  Solving for p, Initial residual = 0.00129637, Final residual = 9.27839e-06, No Iterations 4
GAMG:  Solving for p, Initial residual = 3.40817e-05, Final residual = 5.25317e-06, No Iterations 1
time step continuity errors : sum local = 2.02463e-10, global = 1.00088e-10, cumulative = 7.52678e-09
GAMG:  Solving for p, Initial residual = 0.0290061, Final residual = 0.000258755, No Iterations 7
GAMG:  Solving for p, Initial residual = 0.00129624, Final residual = 9.27788e-06, No Iterations 4
GAMG:  Solving for p, Initial residual = 3.40777e-05, Final residual = 5.25283e-06, No Iterations 1
time step continuity errors : sum local = 2.02461e-10, global = 1.00088e-10, cumulative = 7.62687e-09
GAMG:  Solving for p, Initial residual = 0.0290044, Final residual = 0.000258744, No Iterations 7
GAMG:  Solving for p, Initial residual = 0.00129617, Final residual = 9.27766e-06, No Iterations 4
GAMG:  Solving for p, Initial residual = 3.40758e-05, Final residual = 5.25268e-06, No Iterations 1
time step continuity errors : sum local = 2.0246e-10, global = 1.00087e-10, cumulative = 7.72696e-09
PIMPLE: iteration 2
smoothSolver:  Solving for Ux, Initial residual = 0.0311516, Final residual = 9.65596e-06, No Iterations 47
smoothSolver:  Solving for Uy, Initial residual = 0.0309649, Final residual = 9.64474e-06, No Iterations 47
smoothSolver:  Solving for Uz, Initial residual = 0.00853202, Final residual = 7.71636e-07, No Iterations 1
GAMG:  Solving for p, Initial residual = 0.0146795, Final residual = 0.000142123, No Iterations 7
GAMG:  Solving for p, Initial residual = 0.0132884, Final residual = 9.42021e-05, No Iterations 4
GAMG:  Solving for p, Initial residual = 0.000392976, Final residual = 9.45874e-06, No Iterations 4
time step continuity errors : sum local = 2.42534e-11, global = -1.27628e-11, cumulative = 7.7142e-09
GAMG:  Solving for p, Initial residual = 0.00167457, Final residual = 1.53879e-05, No Iterations 7
GAMG:  Solving for p, Initial residual = 0.000325723, Final residual = 5.35613e-06, No Iterations 3
GAMG:  Solving for p, Initial residual = 1.72643e-05, Final residual = 4.01935e-06, No Iterations 1
time step continuity errors : sum local = 1.00993e-11, global = 6.59202e-12, cumulative = 7.72079e-09
GAMG:  Solving for p, Initial residual = 0.000174962, Final residual = 7.15469e-06, No Iterations 4
GAMG:  Solving for p, Initial residual = 3.37339e-05, Final residual = 5.49069e-06, No Iterations 1
GAMG:  Solving for p, Initial residual = 6.25156e-06, Final residual = 6.25156e-06, No Iterations 0
time step continuity errors : sum local = 1.57143e-11, global = 4.57155e-12, cumulative = 7.72536e-09
GAMG:  Solving for p, Initial residual = 5.79848e-05, Final residual = 8.8319e-06, No Iterations 2
GAMG:  Solving for p, Initial residual = 1.48902e-05, Final residual = 4.73753e-06, No Iterations 1
GAMG:  Solving for p, Initial residual = 5.67941e-06, Final residual = 5.67941e-06, No Iterations 0
time step continuity errors : sum local = 1.42794e-11, global = 2.93992e-12, cumulative = 7.7283e-09
GAMG:  Solving for p, Initial residual = 2.65676e-05, Final residual = 7.78828e-06, No Iterations 1
GAMG:  Solving for p, Initial residual = 8.91126e-06, Final residual = 8.91126e-06, No Iterations 0
GAMG:  Solving for p, Initial residual = 8.91126e-06, Final residual = 8.91126e-06, No Iterations 0
time step continuity errors : sum local = 2.24049e-11, global = 2.75944e-12, cumulative = 7.73106e-09
PIMPLE: not converged within 2 iterations
 just to make sure 0.392847
ExecutionTime = 14461.5 s  ClockTime = 14488 s

forces forces write:
    Sum of forces
        Total    : (-0.000575756 0.000606963 -203.331)
        Pressure : (-0.00285297 -0.000777306 -169.548)
        Viscous  : (0.00227722 0.00138427 -33.7832)
    Sum of moments
        Total    : (0.000938716 -0.0169318 5.16113e-06)
        Pressure : (0.0016846 -0.00717208 -2.57869e-06)
        Viscous  : (-0.00074588 -0.00975971 7.73982e-06)


Courant Number mean: 0.00247831 max: 1.0058
deltaT = 0.00238445
Time = 0.395231

PIMPLE: iteration 1
smoothSolver:  Solving for Ux, Initial residual = 0.0124805, Final residual = 3.75269e-06, No Iterations 4
smoothSolver:  Solving for Uy, Initial residual = 0.0124324, Final residual = 3.74144e-06, No Iterations 4
smoothSolver:  Solving for Uz, Initial residual = 0.0222403, Final residual = 5.48121e-07, No Iterations 1
GAMG:  Solving for p, Initial residual = 0.232449, Final residual = 0.00184854, No Iterations 8
GAMG:  Solving for p, Initial residual = 0.00209763, Final residual = 1.97515e-05, No Iterations 3
GAMG:  Solving for p, Initial residual = 5.39402e-05, Final residual = 5.59008e-06, No Iterations 2
time step continuity errors : sum local = 2.65509e-10, global = -1.35208e-10, cumulative = 7.59585e-09
GAMG:  Solving for p, Initial residual = 0.0269426, Final residual = 0.000214428, No Iterations 8
GAMG:  Solving for p, Initial residual = 0.00145703, Final residual = 1.37669e-05, No Iterations 3
GAMG:  Solving for p, Initial residual = 3.75734e-05, Final residual = 7.38398e-06, No Iterations 1
time step continuity errors : sum local = 3.50402e-10, global = -1.72613e-10, cumulative = 7.42324e-09
GAMG:  Solving for p, Initial residual = 0.0269869, Final residual = 0.000214893, No Iterations 8
GAMG:  Solving for p, Initial residual = 0.00145856, Final residual = 1.3783e-05, No Iterations 3
GAMG:  Solving for p, Initial residual = 3.76065e-05, Final residual = 7.39274e-06, No Iterations 1
time step continuity errors : sum local = 3.50761e-10, global = -1.72783e-10, cumulative = 7.25045e-09
GAMG:  Solving for p, Initial residual = 0.0269903, Final residual = 0.000214929, No Iterations 8
GAMG:  Solving for p, Initial residual = 0.00145858, Final residual = 1.37838e-05, No Iterations 3
GAMG:  Solving for p, Initial residual = 3.76052e-05, Final residual = 7.3931e-06, No Iterations 1
time step continuity errors : sum local = 3.50757e-10, global = -1.72782e-10, cumulative = 7.07767e-09
GAMG:  Solving for p, Initial residual = 0.0269916, Final residual = 0.000214943, No Iterations 8
GAMG:  Solving for p, Initial residual = 0.00145857, Final residual = 1.37841e-05, No Iterations 3
GAMG:  Solving for p, Initial residual = 3.7604e-05, Final residual = 7.39321e-06, No Iterations 1
time step continuity errors : sum local = 3.50753e-10, global = -1.7278e-10, cumulative = 6.90489e-09
PIMPLE: iteration 2
smoothSolver:  Solving for Ux, Initial residual = 0.0371616, Final residual = 9.3675e-06, No Iterations 54
smoothSolver:  Solving for Uy, Initial residual = 0.0368741, Final residual = 9.36647e-06, No Iterations 54
smoothSolver:  Solving for Uz, Initial residual = 0.0111111, Final residual = 1.10368e-06, No Iterations 1
GAMG:  Solving for p, Initial residual = 0.010368, Final residual = 7.98166e-05, No Iterations 8
GAMG:  Solving for p, Initial residual = 0.0355008, Final residual = 0.000332649, No Iterations 3
GAMG:  Solving for p, Initial residual = 0.00107928, Final residual = 1.00188e-05, No Iterations 6
time step continuity errors : sum local = 8.68283e-12, global = 4.64054e-12, cumulative = 6.90953e-09
GAMG:  Solving for p, Initial residual = 0.00523473, Final residual = 2.94368e-05, No Iterations 8
GAMG:  Solving for p, Initial residual = 0.000809393, Final residual = 6.69239e-06, No Iterations 4
GAMG:  Solving for p, Initial residual = 3.90539e-05, Final residual = 5.98407e-06, No Iterations 1
time step continuity errors : sum local = 6.33724e-12, global = -3.66227e-12, cumulative = 6.90587e-09
GAMG:  Solving for p, Initial residual = 0.000540176, Final residual = 6.29228e-06, No Iterations 6
GAMG:  Solving for p, Initial residual = 8.87898e-05, Final residual = 7.09256e-06, No Iterations 1
GAMG:  Solving for p, Initial residual = 9.38491e-06, Final residual = 9.38491e-06, No Iterations 0
time step continuity errors : sum local = 9.9425e-12, global = -1.96596e-12, cumulative = 6.9039e-09
GAMG:  Solving for p, Initial residual = 0.000185687, Final residual = 7.2262e-06, No Iterations 4
GAMG:  Solving for p, Initial residual = 3.72825e-05, Final residual = 5.46491e-06, No Iterations 1
GAMG:  Solving for p, Initial residual = 6.31931e-06, Final residual = 6.31931e-06, No Iterations 0
time step continuity errors : sum local = 6.69372e-12, global = -6.57355e-13, cumulative = 6.90325e-09
GAMG:  Solving for p, Initial residual = 8.68121e-05, Final residual = 8.69004e-06, No Iterations 3
GAMG:  Solving for p, Initial residual = 2.65644e-05, Final residual = 5.15498e-06, No Iterations 1
GAMG:  Solving for p, Initial residual = 6.24978e-06, Final residual = 6.24978e-06, No Iterations 0
time step continuity errors : sum local = 6.61962e-12, global = -8.13769e-14, cumulative = 6.90317e-09
PIMPLE: not converged within 2 iterations
 just to make sure 0.395231
ExecutionTime = 14576.4 s  ClockTime = 14603 s

forces forces write:
    Sum of forces
        Total    : (-0.000496294 9.00709e-05 -8.65055)
        Pressure : (-0.00243597 -0.00086821 23.724)
        Viscous  : (0.00193967 0.000958281 -32.3746)
    Sum of moments
        Total    : (0.00193389 -0.0177304 9.91018e-06)
        Pressure : (0.00184025 -0.00768946 -2.37165e-06)
        Viscous  : (9.36346e-05 -0.010041 1.22818e-05)


Courant Number mean: 0.00239955 max: 0.902246
deltaT = 0.00238445
Time = 0.397616

PIMPLE: iteration 1
smoothSolver:  Solving for Ux, Initial residual = 0.0100407, Final residual = 3.95808e-06, No Iterations 4
smoothSolver:  Solving for Uy, Initial residual = 0.0100226, Final residual = 3.9526e-06, No Iterations 4
smoothSolver:  Solving for Uz, Initial residual = 0.0659868, Final residual = 1.53905e-06, No Iterations 1
GAMG:  Solving for p, Initial residual = 0.641735, Final residual = 0.00531827, No Iterations 8
GAMG:  Solving for p, Initial residual = 0.00201586, Final residual = 1.89778e-05, No Iterations 3
GAMG:  Solving for p, Initial residual = 5.1933e-05, Final residual = 5.36903e-06, No Iterations 2
time step continuity errors : sum local = 6.99357e-10, global = -3.56137e-10, cumulative = 6.54703e-09
GAMG:  Solving for p, Initial residual = 0.0225743, Final residual = 0.000187226, No Iterations 8
GAMG:  Solving for p, Initial residual = 0.00140028, Final residual = 1.32268e-05, No Iterations 3
GAMG:  Solving for p, Initial residual = 3.61902e-05, Final residual = 7.08827e-06, No Iterations 1
time step continuity errors : sum local = 9.22718e-10, global = -4.54866e-10, cumulative = 6.09216e-09
GAMG:  Solving for p, Initial residual = 0.0226015, Final residual = 0.000187554, No Iterations 8
GAMG:  Solving for p, Initial residual = 0.00140163, Final residual = 1.3241e-05, No Iterations 3
GAMG:  Solving for p, Initial residual = 3.622e-05, Final residual = 7.09608e-06, No Iterations 1
time step continuity errors : sum local = 9.23669e-10, global = -4.55313e-10, cumulative = 5.63685e-09
GAMG:  Solving for p, Initial residual = 0.0226022, Final residual = 0.000187567, No Iterations 8
GAMG:  Solving for p, Initial residual = 0.00140161, Final residual = 1.32413e-05, No Iterations 3
GAMG:  Solving for p, Initial residual = 3.62182e-05, Final residual = 7.09622e-06, No Iterations 1
time step continuity errors : sum local = 9.23663e-10, global = -4.55312e-10, cumulative = 5.18154e-09
GAMG:  Solving for p, Initial residual = 0.0226022, Final residual = 0.000187572, No Iterations 8
GAMG:  Solving for p, Initial residual = 0.00140158, Final residual = 1.32415e-05, No Iterations 3
GAMG:  Solving for p, Initial residual = 3.62169e-05, Final residual = 7.09625e-06, No Iterations 1
time step continuity errors : sum local = 9.23656e-10, global = -4.55309e-10, cumulative = 4.72623e-09
PIMPLE: iteration 2
smoothSolver:  Solving for Ux, Initial residual = 0.111889, Final residual = 9.73868e-06, No Iterations 57
smoothSolver:  Solving for Uy, Initial residual = 0.111584, Final residual = 9.78269e-06, No Iterations 57
smoothSolver:  Solving for Uz, Initial residual = 0.034194, Final residual = 3.20634e-06, No Iterations 1
GAMG:  Solving for p, Initial residual = 0.00956173, Final residual = 7.7903e-05, No Iterations 8
GAMG:  Solving for p, Initial residual = 0.0227226, Final residual = 0.000212683, No Iterations 3
GAMG:  Solving for p, Initial residual = 0.000650707, Final residual = 6.03219e-06, No Iterations 6
time step continuity errors : sum local = 2.55374e-11, global = 1.36365e-11, cumulative = 4.73987e-09
GAMG:  Solving for p, Initial residual = 0.00255245, Final residual = 1.94364e-05, No Iterations 7
GAMG:  Solving for p, Initial residual = 0.000456959, Final residual = 6.83347e-06, No Iterations 3
GAMG:  Solving for p, Initial residual = 2.27066e-05, Final residual = 5.15975e-06, No Iterations 1
time step continuity errors : sum local = 2.34319e-11, global = -1.52317e-11, cumulative = 4.72463e-09
GAMG:  Solving for p, Initial residual = 0.00029092, Final residual = 7.08715e-06, No Iterations 5
GAMG:  Solving for p, Initial residual = 5.40343e-05, Final residual = 6.27253e-06, No Iterations 1
GAMG:  Solving for p, Initial residual = 7.37046e-06, Final residual = 7.37046e-06, No Iterations 0
time step continuity errors : sum local = 3.34845e-11, global = -9.2832e-12, cumulative = 4.71535e-09
GAMG:  Solving for p, Initial residual = 0.000100588, Final residual = 8.14905e-06, No Iterations 3
GAMG:  Solving for p, Initial residual = 2.32031e-05, Final residual = 4.82142e-06, No Iterations 1
GAMG:  Solving for p, Initial residual = 5.60622e-06, Final residual = 5.60622e-06, No Iterations 0
time step continuity errors : sum local = 2.54708e-11, global = -4.3108e-12, cumulative = 4.71104e-09
GAMG:  Solving for p, Initial residual = 4.67377e-05, Final residual = 8.31755e-06, No Iterations 2
GAMG:  Solving for p, Initial residual = 1.51016e-05, Final residual = 4.51255e-06, No Iterations 1
GAMG:  Solving for p, Initial residual = 5.53045e-06, Final residual = 5.53045e-06, No Iterations 0
time step continuity errors : sum local = 2.51268e-11, global = -1.82568e-12, cumulative = 4.70921e-09
PIMPLE: not converged within 2 iterations
 just to make sure 0.397616
ExecutionTime = 14687.7 s  ClockTime = 14714 s

forces forces write:
    Sum of forces
        Total    : (-0.000532391 -0.000333114 186.724)
        Pressure : (-0.00199452 -0.000781818 215.958)
        Viscous  : (0.00146213 0.000448704 -29.2346)
    Sum of moments
        Total    : (0.00254907 -0.0183547 1.48191e-05)
        Pressure : (0.00170064 -0.00863087 -2.14415e-06)
        Viscous  : (0.000848437 -0.00972381 1.69632e-05)


Courant Number mean: 0.00218501 max: 0.750108
deltaT = 0.00238445
Time = 0.4

PIMPLE: iteration 1
smoothSolver:  Solving for Ux, Initial residual = 0.0224073, Final residual = 5.72707e-06, No Iterations 4
smoothSolver:  Solving for Uy, Initial residual = 0.0224206, Final residual = 5.7268e-06, No Iterations 4
smoothSolver:  Solving for Uz, Initial residual = 0.120047, Final residual = 2.74572e-06, No Iterations 1
GAMG:  Solving for p, Initial residual = 0.39102, Final residual = 0.00327348, No Iterations 8
GAMG:  Solving for p, Initial residual = 0.00199723, Final residual = 1.88007e-05, No Iterations 3
GAMG:  Solving for p, Initial residual = 5.14705e-05, Final residual = 5.31884e-06, No Iterations 2
time step continuity errors : sum local = 1.09383e-09, global = -5.57025e-10, cumulative = 4.15219e-09
GAMG:  Solving for p, Initial residual = 0.0216784, Final residual = 0.000181642, No Iterations 8
GAMG:  Solving for p, Initial residual = 0.0013874, Final residual = 1.31033e-05, No Iterations 3
GAMG:  Solving for p, Initial residual = 3.58725e-05, Final residual = 7.02091e-06, No Iterations 1
time step continuity errors : sum local = 1.44307e-09, global = -7.11507e-10, cumulative = 3.44068e-09
GAMG:  Solving for p, Initial residual = 0.0217018, Final residual = 0.000181938, No Iterations 8
GAMG:  Solving for p, Initial residual = 0.0013887, Final residual = 1.31169e-05, No Iterations 3
GAMG:  Solving for p, Initial residual = 3.5901e-05, Final residual = 7.02841e-06, No Iterations 1
time step continuity errors : sum local = 1.44454e-09, global = -7.12197e-10, cumulative = 2.72849e-09
GAMG:  Solving for p, Initial residual = 0.021702, Final residual = 0.000181947, No Iterations 8
GAMG:  Solving for p, Initial residual = 0.00138867, Final residual = 1.31172e-05, No Iterations 3
GAMG:  Solving for p, Initial residual = 3.5899e-05, Final residual = 7.0285e-06, No Iterations 1
time step continuity errors : sum local = 1.44453e-09, global = -7.12195e-10, cumulative = 2.01629e-09
GAMG:  Solving for p, Initial residual = 0.0217017, Final residual = 0.00018195, No Iterations 8
GAMG:  Solving for p, Initial residual = 0.00138864, Final residual = 1.31172e-05, No Iterations 3
GAMG:  Solving for p, Initial residual = 3.58977e-05, Final residual = 7.02851e-06, No Iterations 1
time step continuity errors : sum local = 1.44452e-09, global = -7.12192e-10, cumulative = 1.3041e-09
PIMPLE: iteration 2
smoothSolver:  Solving for Ux, Initial residual = 0.186098, Final residual = 9.7649e-06, No Iterations 59
smoothSolver:  Solving for Uy, Initial residual = 0.186133, Final residual = 9.83528e-06, No Iterations 59
smoothSolver:  Solving for Uz, Initial residual = 0.0655663, Final residual = 6.02698e-06, No Iterations 1
GAMG:  Solving for p, Initial residual = 0.00939647, Final residual = 7.75257e-05, No Iterations 8
GAMG:  Solving for p, Initial residual = 0.0211019, Final residual = 0.000197491, No Iterations 3
GAMG:  Solving for p, Initial residual = 0.000599923, Final residual = 9.94028e-06, No Iterations 5
time step continuity errors : sum local = 7.32555e-11, global = 3.85338e-11, cumulative = 1.34263e-09
GAMG:  Solving for p, Initial residual = 0.00220778, Final residual = 1.49523e-05, No Iterations 7
GAMG:  Solving for p, Initial residual = 0.000404465, Final residual = 5.41799e-06, No Iterations 3
GAMG:  Solving for p, Initial residual = 1.92733e-05, Final residual = 4.04144e-06, No Iterations 1
time step continuity errors : sum local = 3.13974e-11, global = -2.01093e-11, cumulative = 1.32252e-09
GAMG:  Solving for p, Initial residual = 0.000256486, Final residual = 6.11937e-06, No Iterations 5
GAMG:  Solving for p, Initial residual = 4.83916e-05, Final residual = 5.36941e-06, No Iterations 1
GAMG:  Solving for p, Initial residual = 6.3458e-06, Final residual = 6.3458e-06, No Iterations 0
time step continuity errors : sum local = 4.93163e-11, global = -1.3438e-11, cumulative = 1.30908e-09
GAMG:  Solving for p, Initial residual = 8.86421e-05, Final residual = 7.21707e-06, No Iterations 3
GAMG:  Solving for p, Initial residual = 2.06421e-05, Final residual = 4.2363e-06, No Iterations 1
GAMG:  Solving for p, Initial residual = 4.9207e-06, Final residual = 4.9207e-06, No Iterations 0
time step continuity errors : sum local = 3.82434e-11, global = -6.62889e-12, cumulative = 1.30246e-09
GAMG:  Solving for p, Initial residual = 4.09087e-05, Final residual = 7.09262e-06, No Iterations 2
GAMG:  Solving for p, Initial residual = 1.28804e-05, Final residual = 3.8556e-06, No Iterations 1
GAMG:  Solving for p, Initial residual = 4.69966e-06, Final residual = 4.69966e-06, No Iterations 0
time step continuity errors : sum local = 3.65259e-11, global = -2.9708e-12, cumulative = 1.29949e-09
PIMPLE: not converged within 2 iterations
 just to make sure 0.4
ExecutionTime = 14813.4 s  ClockTime = 14840 s

forces forces write:
    Sum of forces
        Total    : (-0.000543479 -0.00082511 370.829)
        Pressure : (-0.00144585 -0.000725226 395.374)
        Viscous  : (0.000902366 -9.98845e-05 -24.5451)
    Sum of moments
        Total    : (0.00307179 -0.0177626 1.81849e-05)
        Pressure : (0.0015433 -0.00889001 -1.79326e-06)
        Viscous  : (0.00152849 -0.00887257 1.99781e-05)


    functionObjects::vorticity vorticity writing field: vorticity
End

